Version 4.1
SHEET 1 880 680
SYMBOL nmos 32 -256 R0
SYMATTR InstName M1
SYMBOL nmos 0 -128 R0
SYMATTR InstName M2
SYMBOL nmos 32 96 R0
SYMATTR InstName M3
SYMBOL nmos 400 -256 R0
SYMATTR InstName M4
SYMBOL nmos 384 -32 R0
SYMATTR InstName M5
SYMBOL pmos -16 -560 R0
SYMATTR InstName M6
SYMBOL pmos 160 -560 R0
SYMATTR InstName M7
SYMBOL pmos 352 -560 R0
SYMATTR InstName M8
SYMBOL pmos 544 -560 R0
SYMATTR InstName M9
SYMBOL pmos 688 -576 R0
SYMATTR InstName M10
