************************************************************************
* auCdl Netlist:
* 
* Library Name:  uart5
* Top Cell Name: UART
* View Name:     schematic
* Netlisted on:  May 12 01:52:13 2025
************************************************************************

*.EQUATION
*.SCALE METER
*.MEGA
.PARAM

*.GLOBAL vdd!
+        gnd!
+        GND!

*.PIN vdd!
*+    gnd!
*+    GND!

************************************************************************
* Library Name: uart5
* Cell Name:    NAND2
* View Name:    schematic
************************************************************************

.SUBCKT NAND2 A B OUT
*.PININFO A:I B:I OUT:O
MMP0 OUT A vdd! vdd! pfet W=955n L=65n M=1 NF=1 MPL=1 mSwitch=0 idg=0 pccrit=0 
+ plnest=-1.0 plorient=-1.0 pld200=-1.0 sa=160n sb=160n sd=0 p_vta=0 panw1=0p 
+ panw2=0p panw3=0p panw4=0p panw5=0p panw6=0p panw7=0p panw8=0p panw9=0p 
+ panw10=0p
MMP1 OUT B vdd! vdd! pfet W=955n L=65n M=1 NF=1 MPL=1 mSwitch=0 idg=0 pccrit=0 
+ plnest=-1.0 plorient=-1.0 pld200=-1.0 sa=160n sb=160n sd=0 p_vta=0 panw1=0p 
+ panw2=0p panw3=0p panw4=0p panw5=0p panw6=0p panw7=0p panw8=0p panw9=0p 
+ panw10=0p
MMN1 net1 B gnd! gnd! nfet W=560n L=65n M=1 NF=1 MPL=1 mSwitch=0 idg=0 
+ PTWELL=0 plnest=-1.0 plorient=-1.0 pld200=-1.0 pccrit=0 sa=160n sb=160n sd=0 
+ p_vta=0 panw1=0p panw2=0p panw3=0p panw4=0p panw5=0p panw6=0p panw7=0p 
+ panw8=0p panw9=0p panw10=0p
MMN0 OUT A net1 gnd! nfet W=560n L=65n M=1 NF=1 MPL=1 mSwitch=0 idg=0 PTWELL=0 
+ plnest=-1.0 plorient=-1.0 pld200=-1.0 pccrit=0 sa=160n sb=160n sd=0 p_vta=0 
+ panw1=0p panw2=0p panw3=0p panw4=0p panw5=0p panw6=0p panw7=0p panw8=0p 
+ panw9=0p panw10=0p
.ENDS

************************************************************************
* Library Name: uart5
* Cell Name:    INV
* View Name:    schematic
************************************************************************

.SUBCKT INV IN OUT
*.PININFO IN:I OUT:O
MMN0 OUT IN gnd! gnd! nfet W=560n L=65n M=1 NF=1 MPL=1 mSwitch=0 idg=0 
+ PTWELL=0 plnest=-1.0 plorient=-1.0 pld200=-1.0 pccrit=0 sa=160n sb=160n sd=0 
+ p_vta=0 panw1=0p panw2=0p panw3=0p panw4=0p panw5=0p panw6=0p panw7=0p 
+ panw8=0p panw9=0p panw10=0p
MMP0 OUT IN vdd! vdd! pfet W=955n L=65n M=1 NF=1 MPL=1 mSwitch=0 idg=0 
+ pccrit=0 plnest=-1.0 plorient=-1.0 pld200=-1.0 sa=160n sb=160n sd=0 p_vta=0 
+ panw1=0p panw2=0p panw3=0p panw4=0p panw5=0p panw6=0p panw7=0p panw8=0p 
+ panw9=0p panw10=0p
.ENDS

************************************************************************
* Library Name: uart5
* Cell Name:    NAND3
* View Name:    schematic
************************************************************************

.SUBCKT NAND3 A B C OUT
*.PININFO A:I B:I C:I OUT:O
MMP1 OUT B vdd! vdd! pfet W=955n L=65n M=1 NF=1 MPL=1 mSwitch=0 idg=0 pccrit=0 
+ plnest=-1.0 plorient=-1.0 pld200=-1.0 sa=160n sb=160n sd=0 p_vta=0 panw1=0p 
+ panw2=0p panw3=0p panw4=0p panw5=0p panw6=0p panw7=0p panw8=0p panw9=0p 
+ panw10=0p
MMP2 OUT C vdd! vdd! pfet W=955n L=65n M=1 NF=1 MPL=1 mSwitch=0 idg=0 pccrit=0 
+ plnest=-1.0 plorient=-1.0 pld200=-1.0 sa=160n sb=160n sd=0 p_vta=0 panw1=0p 
+ panw2=0p panw3=0p panw4=0p panw5=0p panw6=0p panw7=0p panw8=0p panw9=0p 
+ panw10=0p
MMP0 OUT A vdd! vdd! pfet W=955n L=65n M=1 NF=1 MPL=1 mSwitch=0 idg=0 pccrit=0 
+ plnest=-1.0 plorient=-1.0 pld200=-1.0 sa=160n sb=160n sd=0 p_vta=0 panw1=0p 
+ panw2=0p panw3=0p panw4=0p panw5=0p panw6=0p panw7=0p panw8=0p panw9=0p 
+ panw10=0p
MMN1 OUT A net2 gnd! nfet W=560n L=65n M=1 NF=1 MPL=1 mSwitch=0 idg=0 PTWELL=0 
+ plnest=-1.0 plorient=-1.0 pld200=-1.0 pccrit=0 sa=160n sb=160n sd=0 p_vta=0 
+ panw1=0p panw2=0p panw3=0p panw4=0p panw5=0p panw6=0p panw7=0p panw8=0p 
+ panw9=0p panw10=0p
MMN2 net2 B net1 gnd! nfet W=560n L=65n M=1 NF=1 MPL=1 mSwitch=0 idg=0 
+ PTWELL=0 plnest=-1.0 plorient=-1.0 pld200=-1.0 pccrit=0 sa=160n sb=160n sd=0 
+ p_vta=0 panw1=0p panw2=0p panw3=0p panw4=0p panw5=0p panw6=0p panw7=0p 
+ panw8=0p panw9=0p panw10=0p
MMN3 net1 C gnd! gnd! nfet W=560n L=65n M=1 NF=1 MPL=1 mSwitch=0 idg=0 
+ PTWELL=0 plnest=-1.0 plorient=-1.0 pld200=-1.0 pccrit=0 sa=160n sb=160n sd=0 
+ p_vta=0 panw1=0p panw2=0p panw3=0p panw4=0p panw5=0p panw6=0p panw7=0p 
+ panw8=0p panw9=0p panw10=0p
.ENDS

************************************************************************
* Library Name: uart5
* Cell Name:    DFF
* View Name:    schematic
************************************************************************

.SUBCKT DFF CLK D Q R
*.PININFO CLK:I D:I R:I Q:O
MMN0 net9 D gnd! gnd! nfet W=560n L=65n M=1 NF=1 MPL=1 mSwitch=0 idg=0 
+ PTWELL=0 plnest=-1.0 plorient=-1.0 pld200=-1.0 pccrit=0 sa=160n sb=160n sd=0 
+ p_vta=0 panw1=0p panw2=0p panw3=0p panw4=0p panw5=0p panw6=0p panw7=0p 
+ panw8=0p panw9=0p panw10=0p
MMN6 net6 B gnd! gnd! nfet W=560n L=65n M=1 NF=1 MPL=1 mSwitch=0 idg=0 
+ PTWELL=0 plnest=-1.0 plorient=-1.0 pld200=-1.0 pccrit=0 sa=160n sb=160n sd=0 
+ p_vta=0 panw1=0p panw2=0p panw3=0p panw4=0p panw5=0p panw6=0p panw7=0p 
+ panw8=0p panw9=0p panw10=0p
MMN8 net4 B gnd! gnd! nfet W=560n L=65n M=1 NF=1 MPL=1 mSwitch=0 idg=0 
+ PTWELL=0 plnest=-1.0 plorient=-1.0 pld200=-1.0 pccrit=0 sa=160n sb=160n sd=0 
+ p_vta=0 panw1=0p panw2=0p panw3=0p panw4=0p panw5=0p panw6=0p panw7=0p 
+ panw8=0p panw9=0p panw10=0p
MMN12 net1 E gnd! gnd! nfet W=560n L=65n M=1 NF=1 MPL=1 mSwitch=0 idg=0 
+ PTWELL=0 plnest=-1.0 plorient=-1.0 pld200=-1.0 pccrit=0 sa=160n sb=160n sd=0 
+ p_vta=0 panw1=0p panw2=0p panw3=0p panw4=0p panw5=0p panw6=0p panw7=0p 
+ panw8=0p panw9=0p panw10=0p
MMN1 CLK+ CLK- gnd! gnd! nfet W=560n L=65n M=1 NF=1 MPL=1 mSwitch=0 idg=0 
+ PTWELL=0 plnest=-1.0 plorient=-1.0 pld200=-1.0 pccrit=0 sa=160n sb=160n sd=0 
+ p_vta=0 panw1=0p panw2=0p panw3=0p panw4=0p panw5=0p panw6=0p panw7=0p 
+ panw8=0p panw9=0p panw10=0p
MMN2 CLK- CLK gnd! gnd! nfet W=560n L=65n M=1 NF=1 MPL=1 mSwitch=0 idg=0 
+ PTWELL=0 plnest=-1.0 plorient=-1.0 pld200=-1.0 pccrit=0 sa=160n sb=160n sd=0 
+ p_vta=0 panw1=0p panw2=0p panw3=0p panw4=0p panw5=0p panw6=0p panw7=0p 
+ panw8=0p panw9=0p panw10=0p
MMN3 A CLK- net9 gnd! nfet W=560n L=65n M=1 NF=1 MPL=1 mSwitch=0 idg=0 
+ PTWELL=0 plnest=-1.0 plorient=-1.0 pld200=-1.0 pccrit=0 sa=160n sb=160n sd=0 
+ p_vta=0 panw1=0p panw2=0p panw3=0p panw4=0p panw5=0p panw6=0p panw7=0p 
+ panw8=0p panw9=0p panw10=0p
MMN4 B A gnd! gnd! nfet W=560n L=65n M=1 NF=1 MPL=1 mSwitch=0 idg=0 PTWELL=0 
+ plnest=-1.0 plorient=-1.0 pld200=-1.0 pccrit=0 sa=160n sb=160n sd=0 p_vta=0 
+ panw1=0p panw2=0p panw3=0p panw4=0p panw5=0p panw6=0p panw7=0p panw8=0p 
+ panw9=0p panw10=0p
MMN5 B R gnd! gnd! nfet W=560n L=65n M=1 NF=1 MPL=1 mSwitch=0 idg=0 PTWELL=0 
+ plnest=-1.0 plorient=-1.0 pld200=-1.0 pccrit=0 sa=160n sb=160n sd=0 p_vta=0 
+ panw1=0p panw2=0p panw3=0p panw4=0p panw5=0p panw6=0p panw7=0p panw8=0p 
+ panw9=0p panw10=0p
MMN7 A CLK+ net6 gnd! nfet W=560n L=65n M=1 NF=1 MPL=1 mSwitch=0 idg=0 
+ PTWELL=0 plnest=-1.0 plorient=-1.0 pld200=-1.0 pccrit=0 sa=160n sb=160n sd=0 
+ p_vta=0 panw1=0p panw2=0p panw3=0p panw4=0p panw5=0p panw6=0p panw7=0p 
+ panw8=0p panw9=0p panw10=0p
MMN9 C CLK+ net4 gnd! nfet W=560n L=65n M=1 NF=1 MPL=1 mSwitch=0 idg=0 
+ PTWELL=0 plnest=-1.0 plorient=-1.0 pld200=-1.0 pccrit=0 sa=160n sb=160n sd=0 
+ p_vta=0 panw1=0p panw2=0p panw3=0p panw4=0p panw5=0p panw6=0p panw7=0p 
+ panw8=0p panw9=0p panw10=0p
MMN10 E C gnd! gnd! nfet W=560n L=65n M=1 NF=1 MPL=1 mSwitch=0 idg=0 PTWELL=0 
+ plnest=-1.0 plorient=-1.0 pld200=-1.0 pccrit=0 sa=160n sb=160n sd=0 p_vta=0 
+ panw1=0p panw2=0p panw3=0p panw4=0p panw5=0p panw6=0p panw7=0p panw8=0p 
+ panw9=0p panw10=0p
MMN11 E R gnd! gnd! nfet W=560n L=65n M=1 NF=1 MPL=1 mSwitch=0 idg=0 PTWELL=0 
+ plnest=-1.0 plorient=-1.0 pld200=-1.0 pccrit=0 sa=160n sb=160n sd=0 p_vta=0 
+ panw1=0p panw2=0p panw3=0p panw4=0p panw5=0p panw6=0p panw7=0p panw8=0p 
+ panw9=0p panw10=0p
MMN13 C CLK- net1 gnd! nfet W=560n L=65n M=1 NF=1 MPL=1 mSwitch=0 idg=0 
+ PTWELL=0 plnest=-1.0 plorient=-1.0 pld200=-1.0 pccrit=0 sa=160n sb=160n sd=0 
+ p_vta=0 panw1=0p panw2=0p panw3=0p panw4=0p panw5=0p panw6=0p panw7=0p 
+ panw8=0p panw9=0p panw10=0p
MMN14 Q C gnd! gnd! nfet W=560n L=65n M=1 NF=1 MPL=1 mSwitch=0 idg=0 PTWELL=0 
+ plnest=-1.0 plorient=-1.0 pld200=-1.0 pccrit=0 sa=160n sb=160n sd=0 p_vta=0 
+ panw1=0p panw2=0p panw3=0p panw4=0p panw5=0p panw6=0p panw7=0p panw8=0p 
+ panw9=0p panw10=0p
MMP0 CLK- CLK vdd! vdd! pfet W=955n L=65n M=1 NF=1 MPL=1 mSwitch=0 idg=0 
+ pccrit=0 plnest=-1.0 plorient=-1.0 pld200=-1.0 sa=160n sb=160n sd=0 p_vta=0 
+ panw1=0p panw2=0p panw3=0p panw4=0p panw5=0p panw6=0p panw7=0p panw8=0p 
+ panw9=0p panw10=0p
MMP1 CLK+ CLK- vdd! vdd! pfet W=955n L=65n M=1 NF=1 MPL=1 mSwitch=0 idg=0 
+ pccrit=0 plnest=-1.0 plorient=-1.0 pld200=-1.0 sa=160n sb=160n sd=0 p_vta=0 
+ panw1=0p panw2=0p panw3=0p panw4=0p panw5=0p panw6=0p panw7=0p panw8=0p 
+ panw9=0p panw10=0p
MMP3 A CLK+ net10 vdd! pfet W=955n L=65n M=1 NF=1 MPL=1 mSwitch=0 idg=0 
+ pccrit=0 plnest=-1.0 plorient=-1.0 pld200=-1.0 sa=160n sb=160n sd=0 p_vta=0 
+ panw1=0p panw2=0p panw3=0p panw4=0p panw5=0p panw6=0p panw7=0p panw8=0p 
+ panw9=0p panw10=0p
MMP4 B R net8 vdd! pfet W=955n L=65n M=1 NF=1 MPL=1 mSwitch=0 idg=0 pccrit=0 
+ plnest=-1.0 plorient=-1.0 pld200=-1.0 sa=160n sb=160n sd=0 p_vta=0 panw1=0p 
+ panw2=0p panw3=0p panw4=0p panw5=0p panw6=0p panw7=0p panw8=0p panw9=0p 
+ panw10=0p
MMP7 A CLK- net7 vdd! pfet W=955n L=65n M=1 NF=1 MPL=1 mSwitch=0 idg=0 
+ pccrit=0 plnest=-1.0 plorient=-1.0 pld200=-1.0 sa=160n sb=160n sd=0 p_vta=0 
+ panw1=0p panw2=0p panw3=0p panw4=0p panw5=0p panw6=0p panw7=0p panw8=0p 
+ panw9=0p panw10=0p
MMP9 C CLK- net5 vdd! pfet W=955n L=65n M=1 NF=1 MPL=1 mSwitch=0 idg=0 
+ pccrit=0 plnest=-1.0 plorient=-1.0 pld200=-1.0 sa=160n sb=160n sd=0 p_vta=0 
+ panw1=0p panw2=0p panw3=0p panw4=0p panw5=0p panw6=0p panw7=0p panw8=0p 
+ panw9=0p panw10=0p
MMP10 E R net3 vdd! pfet W=955n L=65n M=1 NF=1 MPL=1 mSwitch=0 idg=0 pccrit=0 
+ plnest=-1.0 plorient=-1.0 pld200=-1.0 sa=160n sb=160n sd=0 p_vta=0 panw1=0p 
+ panw2=0p panw3=0p panw4=0p panw5=0p panw6=0p panw7=0p panw8=0p panw9=0p 
+ panw10=0p
MMP13 C CLK+ net2 vdd! pfet W=955n L=65n M=1 NF=1 MPL=1 mSwitch=0 idg=0 
+ pccrit=0 plnest=-1.0 plorient=-1.0 pld200=-1.0 sa=160n sb=160n sd=0 p_vta=0 
+ panw1=0p panw2=0p panw3=0p panw4=0p panw5=0p panw6=0p panw7=0p panw8=0p 
+ panw9=0p panw10=0p
MMP14 Q C vdd! vdd! pfet W=955n L=65n M=1 NF=1 MPL=1 mSwitch=0 idg=0 pccrit=0 
+ plnest=-1.0 plorient=-1.0 pld200=-1.0 sa=160n sb=160n sd=0 p_vta=0 panw1=0p 
+ panw2=0p panw3=0p panw4=0p panw5=0p panw6=0p panw7=0p panw8=0p panw9=0p 
+ panw10=0p
MMP5 net8 A vdd! vdd! pfet W=955n L=65n M=1 NF=1 MPL=1 mSwitch=0 idg=0 
+ pccrit=0 plnest=-1.0 plorient=-1.0 pld200=-1.0 sa=160n sb=160n sd=0 p_vta=0 
+ panw1=0p panw2=0p panw3=0p panw4=0p panw5=0p panw6=0p panw7=0p panw8=0p 
+ panw9=0p panw10=0p
MMP2 net10 D vdd! vdd! pfet W=955n L=65n M=1 NF=1 MPL=1 mSwitch=0 idg=0 
+ pccrit=0 plnest=-1.0 plorient=-1.0 pld200=-1.0 sa=160n sb=160n sd=0 p_vta=0 
+ panw1=0p panw2=0p panw3=0p panw4=0p panw5=0p panw6=0p panw7=0p panw8=0p 
+ panw9=0p panw10=0p
MMP11 net3 C vdd! vdd! pfet W=955n L=65n M=1 NF=1 MPL=1 mSwitch=0 idg=0 
+ pccrit=0 plnest=-1.0 plorient=-1.0 pld200=-1.0 sa=160n sb=160n sd=0 p_vta=0 
+ panw1=0p panw2=0p panw3=0p panw4=0p panw5=0p panw6=0p panw7=0p panw8=0p 
+ panw9=0p panw10=0p
MMP6 net7 B vdd! vdd! pfet W=955n L=65n M=1 NF=1 MPL=1 mSwitch=0 idg=0 
+ pccrit=0 plnest=-1.0 plorient=-1.0 pld200=-1.0 sa=160n sb=160n sd=0 p_vta=0 
+ panw1=0p panw2=0p panw3=0p panw4=0p panw5=0p panw6=0p panw7=0p panw8=0p 
+ panw9=0p panw10=0p
MMP8 net5 B vdd! vdd! pfet W=955n L=65n M=1 NF=1 MPL=1 mSwitch=0 idg=0 
+ pccrit=0 plnest=-1.0 plorient=-1.0 pld200=-1.0 sa=160n sb=160n sd=0 p_vta=0 
+ panw1=0p panw2=0p panw3=0p panw4=0p panw5=0p panw6=0p panw7=0p panw8=0p 
+ panw9=0p panw10=0p
MMP12 net2 E vdd! vdd! pfet W=955n L=65n M=1 NF=1 MPL=1 mSwitch=0 idg=0 
+ pccrit=0 plnest=-1.0 plorient=-1.0 pld200=-1.0 sa=160n sb=160n sd=0 p_vta=0 
+ panw1=0p panw2=0p panw3=0p panw4=0p panw5=0p panw6=0p panw7=0p panw8=0p 
+ panw9=0p panw10=0p
.ENDS

************************************************************************
* Library Name: uart5
* Cell Name:    NOR2
* View Name:    schematic
************************************************************************

.SUBCKT NOR2 A B OUT
*.PININFO A:I B:I OUT:O
MMP0 net1 A vdd! vdd! pfet W=955n L=65n M=1 NF=1 MPL=1 mSwitch=0 idg=0 
+ pccrit=0 plnest=-1.0 plorient=-1.0 pld200=-1.0 sa=160n sb=160n sd=0 p_vta=0 
+ panw1=0p panw2=0p panw3=0p panw4=0p panw5=0p panw6=0p panw7=0p panw8=0p 
+ panw9=0p panw10=0p
MMP1 OUT B net1 vdd! pfet W=955n L=65n M=1 NF=1 MPL=1 mSwitch=0 idg=0 pccrit=0 
+ plnest=-1.0 plorient=-1.0 pld200=-1.0 sa=160n sb=160n sd=0 p_vta=0 panw1=0p 
+ panw2=0p panw3=0p panw4=0p panw5=0p panw6=0p panw7=0p panw8=0p panw9=0p 
+ panw10=0p
MMN0 OUT A gnd! gnd! nfet W=560n L=65n M=1 NF=1 MPL=1 mSwitch=0 idg=0 PTWELL=0 
+ plnest=-1.0 plorient=-1.0 pld200=-1.0 pccrit=0 sa=160n sb=160n sd=0 p_vta=0 
+ panw1=0p panw2=0p panw3=0p panw4=0p panw5=0p panw6=0p panw7=0p panw8=0p 
+ panw9=0p panw10=0p
MMN1 OUT B gnd! gnd! nfet W=560n L=65n M=1 NF=1 MPL=1 mSwitch=0 idg=0 PTWELL=0 
+ plnest=-1.0 plorient=-1.0 pld200=-1.0 pccrit=0 sa=160n sb=160n sd=0 p_vta=0 
+ panw1=0p panw2=0p panw3=0p panw4=0p panw5=0p panw6=0p panw7=0p panw8=0p 
+ panw9=0p panw10=0p
.ENDS

************************************************************************
* Library Name: uart5
* Cell Name:    XNOR2
* View Name:    schematic
************************************************************************

.SUBCKT XNOR2 A B OUT
*.PININFO A:I B:I OUT:O
MMP0 Z A vdd! vdd! pfet W=955n L=65n M=1 NF=1 MPL=1 mSwitch=0 idg=0 pccrit=0 
+ plnest=-1.0 plorient=-1.0 pld200=-1.0 sa=160n sb=160n sd=0 p_vta=0 panw1=0p 
+ panw2=0p panw3=0p panw4=0p panw5=0p panw6=0p panw7=0p panw8=0p panw9=0p 
+ panw10=0p
MMP1 Z B vdd! vdd! pfet W=955n L=65n M=1 NF=1 MPL=1 mSwitch=0 idg=0 pccrit=0 
+ plnest=-1.0 plorient=-1.0 pld200=-1.0 sa=160n sb=160n sd=0 p_vta=0 panw1=0p 
+ panw2=0p panw3=0p panw4=0p panw5=0p panw6=0p panw7=0p panw8=0p panw9=0p 
+ panw10=0p
MMP2 OUT B net1 vdd! pfet W=955n L=65n M=1 NF=1 MPL=1 mSwitch=0 idg=0 pccrit=0 
+ plnest=-1.0 plorient=-1.0 pld200=-1.0 sa=160n sb=160n sd=0 p_vta=0 panw1=0p 
+ panw2=0p panw3=0p panw4=0p panw5=0p panw6=0p panw7=0p panw8=0p panw9=0p 
+ panw10=0p
MMP3 net1 A vdd! vdd! pfet W=955n L=65n M=1 NF=1 MPL=1 mSwitch=0 idg=0 
+ pccrit=0 plnest=-1.0 plorient=-1.0 pld200=-1.0 sa=160n sb=160n sd=0 p_vta=0 
+ panw1=0p panw2=0p panw3=0p panw4=0p panw5=0p panw6=0p panw7=0p panw8=0p 
+ panw9=0p panw10=0p
MMP4 OUT Z vdd! vdd! pfet W=955n L=65n M=1 NF=1 MPL=1 mSwitch=0 idg=0 pccrit=0 
+ plnest=-1.0 plorient=-1.0 pld200=-1.0 sa=160n sb=160n sd=0 p_vta=0 panw1=0p 
+ panw2=0p panw3=0p panw4=0p panw5=0p panw6=0p panw7=0p panw8=0p panw9=0p 
+ panw10=0p
MMN0 Z A net3 gnd! nfet W=560n L=65n M=1 NF=1 MPL=1 mSwitch=0 idg=0 PTWELL=0 
+ plnest=-1.0 plorient=-1.0 pld200=-1.0 pccrit=0 sa=160n sb=160n sd=0 p_vta=0 
+ panw1=0p panw2=0p panw3=0p panw4=0p panw5=0p panw6=0p panw7=0p panw8=0p 
+ panw9=0p panw10=0p
MMN1 net3 B gnd! gnd! nfet W=560n L=65n M=1 NF=1 MPL=1 mSwitch=0 idg=0 
+ PTWELL=0 plnest=-1.0 plorient=-1.0 pld200=-1.0 pccrit=0 sa=160n sb=160n sd=0 
+ p_vta=0 panw1=0p panw2=0p panw3=0p panw4=0p panw5=0p panw6=0p panw7=0p 
+ panw8=0p panw9=0p panw10=0p
MMN2 OUT A net2 gnd! nfet W=560n L=65n M=1 NF=1 MPL=1 mSwitch=0 idg=0 PTWELL=0 
+ plnest=-1.0 plorient=-1.0 pld200=-1.0 pccrit=0 sa=160n sb=160n sd=0 p_vta=0 
+ panw1=0p panw2=0p panw3=0p panw4=0p panw5=0p panw6=0p panw7=0p panw8=0p 
+ panw9=0p panw10=0p
MMN3 OUT B net2 gnd! nfet W=560n L=65n M=1 NF=1 MPL=1 mSwitch=0 idg=0 PTWELL=0 
+ plnest=-1.0 plorient=-1.0 pld200=-1.0 pccrit=0 sa=160n sb=160n sd=0 p_vta=0 
+ panw1=0p panw2=0p panw3=0p panw4=0p panw5=0p panw6=0p panw7=0p panw8=0p 
+ panw9=0p panw10=0p
MMN4 net2 Z gnd! gnd! nfet W=560n L=65n M=1 NF=1 MPL=1 mSwitch=0 idg=0 
+ PTWELL=0 plnest=-1.0 plorient=-1.0 pld200=-1.0 pccrit=0 sa=160n sb=160n sd=0 
+ p_vta=0 panw1=0p panw2=0p panw3=0p panw4=0p panw5=0p panw6=0p panw7=0p 
+ panw8=0p panw9=0p panw10=0p
.ENDS

************************************************************************
* Library Name: uart5
* Cell Name:    OAI22
* View Name:    schematic
************************************************************************

.SUBCKT OAI22 A B C D OUT
*.PININFO A:I B:I C:I D:I OUT:O
MMP0 net3 A vdd! vdd! pfet W=955n L=65n M=1 NF=1 MPL=1 mSwitch=0 idg=0 
+ pccrit=0 plnest=-1.0 plorient=-1.0 pld200=-1.0 sa=160n sb=160n sd=0 p_vta=0 
+ panw1=0p panw2=0p panw3=0p panw4=0p panw5=0p panw6=0p panw7=0p panw8=0p 
+ panw9=0p panw10=0p
MMP1 net2 C vdd! vdd! pfet W=955n L=65n M=1 NF=1 MPL=1 mSwitch=0 idg=0 
+ pccrit=0 plnest=-1.0 plorient=-1.0 pld200=-1.0 sa=160n sb=160n sd=0 p_vta=0 
+ panw1=0p panw2=0p panw3=0p panw4=0p panw5=0p panw6=0p panw7=0p panw8=0p 
+ panw9=0p panw10=0p
MMP2 OUT B net3 vdd! pfet W=955n L=65n M=1 NF=1 MPL=1 mSwitch=0 idg=0 pccrit=0 
+ plnest=-1.0 plorient=-1.0 pld200=-1.0 sa=160n sb=160n sd=0 p_vta=0 panw1=0p 
+ panw2=0p panw3=0p panw4=0p panw5=0p panw6=0p panw7=0p panw8=0p panw9=0p 
+ panw10=0p
MMP3 OUT D net2 vdd! pfet W=955n L=65n M=1 NF=1 MPL=1 mSwitch=0 idg=0 pccrit=0 
+ plnest=-1.0 plorient=-1.0 pld200=-1.0 sa=160n sb=160n sd=0 p_vta=0 panw1=0p 
+ panw2=0p panw3=0p panw4=0p panw5=0p panw6=0p panw7=0p panw8=0p panw9=0p 
+ panw10=0p
MMN0 OUT B net1 gnd! nfet W=560n L=65n M=1 NF=1 MPL=1 mSwitch=0 idg=0 PTWELL=0 
+ plnest=-1.0 plorient=-1.0 pld200=-1.0 pccrit=0 sa=160n sb=160n sd=0 p_vta=0 
+ panw1=0p panw2=0p panw3=0p panw4=0p panw5=0p panw6=0p panw7=0p panw8=0p 
+ panw9=0p panw10=0p
MMN1 OUT A net1 gnd! nfet W=560n L=65n M=1 NF=1 MPL=1 mSwitch=0 idg=0 PTWELL=0 
+ plnest=-1.0 plorient=-1.0 pld200=-1.0 pccrit=0 sa=160n sb=160n sd=0 p_vta=0 
+ panw1=0p panw2=0p panw3=0p panw4=0p panw5=0p panw6=0p panw7=0p panw8=0p 
+ panw9=0p panw10=0p
MMN2 net1 C gnd! gnd! nfet W=560n L=65n M=1 NF=1 MPL=1 mSwitch=0 idg=0 
+ PTWELL=0 plnest=-1.0 plorient=-1.0 pld200=-1.0 pccrit=0 sa=160n sb=160n sd=0 
+ p_vta=0 panw1=0p panw2=0p panw3=0p panw4=0p panw5=0p panw6=0p panw7=0p 
+ panw8=0p panw9=0p panw10=0p
MMN3 net1 D gnd! gnd! nfet W=560n L=65n M=1 NF=1 MPL=1 mSwitch=0 idg=0 
+ PTWELL=0 plnest=-1.0 plorient=-1.0 pld200=-1.0 pccrit=0 sa=160n sb=160n sd=0 
+ p_vta=0 panw1=0p panw2=0p panw3=0p panw4=0p panw5=0p panw6=0p panw7=0p 
+ panw8=0p panw9=0p panw10=0p
.ENDS

************************************************************************
* Library Name: uart5
* Cell Name:    UART
* View Name:    schematic
************************************************************************

.SUBCKT UART i_RX_Serial i_Rst_L i_System_Clock i_TX_Byte<7> i_TX_Byte<6> 
+ i_TX_Byte<5> i_TX_Byte<4> i_TX_Byte<3> i_TX_Byte<2> i_TX_Byte<1> 
+ i_TX_Byte<0> i_TX_Valid o_RX_Byte<7> o_RX_Byte<6> o_RX_Byte<5> o_RX_Byte<4> 
+ o_RX_Byte<3> o_RX_Byte<2> o_RX_Byte<1> o_RX_Byte<0> o_RX_Done o_TX_Busy 
+ o_TX_Done o_TX_Serial
*.PININFO i_RX_Serial:I i_Rst_L:I i_System_Clock:I i_TX_Byte<7>:I 
*.PININFO i_TX_Byte<6>:I i_TX_Byte<5>:I i_TX_Byte<4>:I i_TX_Byte<3>:I 
*.PININFO i_TX_Byte<2>:I i_TX_Byte<1>:I i_TX_Byte<0>:I i_TX_Valid:I 
*.PININFO o_RX_Byte<7>:O o_RX_Byte<6>:O o_RX_Byte<5>:O o_RX_Byte<4>:O 
*.PININFO o_RX_Byte<3>:O o_RX_Byte<2>:O o_RX_Byte<1>:O o_RX_Byte<0>:O 
*.PININFO o_RX_Done:O o_TX_Busy:O o_TX_Done:O o_TX_Serial:O
XUART_TX_Inst#2fU7 UART_TX_Inst#2fr_SM_Main<1> UART_TX_Inst#2fn14 
+ UART_TX_Inst#2fn13 / NAND2
XU113 n55 n29 n27 / NAND2
XU114 n52 n34 n32 / NAND2
XUART_RX_Inst#2fr35#2fULTI0_0 UART_RX_Inst#2fm87 UART_RX_Inst#2fU3#2fU1#2fZ_9 
+ UART_RX_Inst#2fr35#2fLTV1<0> / NAND2
XUART_RX_Inst#2fr35#2fULTI0_1 n71 UART_RX_Inst#2fU3#2fU1#2fZ_9 
+ UART_RX_Inst#2fr35#2fLTV1<1> / NAND2
XUART_RX_Inst#2fr35#2fULTI0_4 n68 UART_RX_Inst#2fU3#2fU1#2fZ_7 
+ UART_RX_Inst#2fr35#2fLTV1<4> / NAND2
XUART_RX_Inst#2fr35#2fULTI1 UART_RX_Inst#2fr35#2fAEQB<15> 
+ UART_RX_Inst#2fr35#2fLTV<15> UART_RX_Inst#2fr35#2fLTV2<15> / NAND2
XUART_RX_Inst#2fr35#2fULTI1_14 UART_RX_Inst#2fr35#2fAEQB<14> 
+ UART_RX_Inst#2fr35#2fLTV<14> UART_RX_Inst#2fr35#2fLTV2<14> / NAND2
XUART_RX_Inst#2fr35#2fULTI1_13 UART_RX_Inst#2fr35#2fAEQB<13> 
+ UART_RX_Inst#2fr35#2fLTV<13> UART_RX_Inst#2fr35#2fLTV2<13> / NAND2
XUART_RX_Inst#2fr35#2fULTI1_12 UART_RX_Inst#2fr35#2fAEQB<12> 
+ UART_RX_Inst#2fr35#2fLTV<12> UART_RX_Inst#2fr35#2fLTV2<12> / NAND2
XUART_RX_Inst#2fr35#2fULTI1_11 UART_RX_Inst#2fr35#2fAEQB<11> 
+ UART_RX_Inst#2fr35#2fLTV<11> UART_RX_Inst#2fr35#2fLTV2<11> / NAND2
XUART_RX_Inst#2fr35#2fULTI1_10 UART_RX_Inst#2fr35#2fAEQB<10> 
+ UART_RX_Inst#2fr35#2fLTV<10> UART_RX_Inst#2fr35#2fLTV2<10> / NAND2
XUART_RX_Inst#2fr35#2fULTI2_9 UART_RX_Inst#2fr35#2fLTV1<9> 
+ UART_RX_Inst#2fr35#2fLTV2<9> UART_RX_Inst#2fr35#2fLTV<10> / NAND2
XUART_RX_Inst#2fr35#2fULTI1_9 UART_RX_Inst#2fr35#2fAEQB<9> 
+ UART_RX_Inst#2fr35#2fLTV<9> UART_RX_Inst#2fr35#2fLTV2<9> / NAND2
XUART_RX_Inst#2fr35#2fULTI2_8 UART_RX_Inst#2fr35#2fLTV1<8> 
+ UART_RX_Inst#2fr35#2fLTV2<8> UART_RX_Inst#2fr35#2fLTV<9> / NAND2
XUART_RX_Inst#2fr35#2fULTI1_8 UART_RX_Inst#2fr35#2fAEQB<8> 
+ UART_RX_Inst#2fr35#2fLTV<8> UART_RX_Inst#2fr35#2fLTV2<8> / NAND2
XUART_RX_Inst#2fr35#2fULTI2_7 UART_RX_Inst#2fr35#2fLTV1<7> 
+ UART_RX_Inst#2fr35#2fLTV2<7> UART_RX_Inst#2fr35#2fLTV<8> / NAND2
XUART_RX_Inst#2fr35#2fULTI1_7 UART_RX_Inst#2fr35#2fAEQB<7> 
+ UART_RX_Inst#2fr35#2fLTV<7> UART_RX_Inst#2fr35#2fLTV2<7> / NAND2
XUART_RX_Inst#2fr35#2fULTI2_6 UART_RX_Inst#2fr35#2fLTV1<6> 
+ UART_RX_Inst#2fr35#2fLTV2<6> UART_RX_Inst#2fr35#2fLTV<7> / NAND2
XUART_RX_Inst#2fr35#2fULTI1_6 UART_RX_Inst#2fr35#2fAEQB<6> 
+ UART_RX_Inst#2fr35#2fLTV<6> UART_RX_Inst#2fr35#2fLTV2<6> / NAND2
XUART_RX_Inst#2fr35#2fULTI2_5 UART_RX_Inst#2fr35#2fLTV1<5> 
+ UART_RX_Inst#2fr35#2fLTV2<5> UART_RX_Inst#2fr35#2fLTV<6> / NAND2
XUART_RX_Inst#2fr35#2fULTI1_5 UART_RX_Inst#2fr35#2fAEQB<5> 
+ UART_RX_Inst#2fr35#2fLTV<5> UART_RX_Inst#2fr35#2fLTV2<5> / NAND2
XUART_RX_Inst#2fr35#2fULTI2_4 UART_RX_Inst#2fr35#2fLTV1<4> 
+ UART_RX_Inst#2fr35#2fLTV2<4> UART_RX_Inst#2fr35#2fLTV<5> / NAND2
XUART_RX_Inst#2fr35#2fULTI1_4 UART_RX_Inst#2fr35#2fAEQB<4> 
+ UART_RX_Inst#2fr35#2fLTV<4> UART_RX_Inst#2fr35#2fLTV2<4> / NAND2
XUART_RX_Inst#2fr35#2fULTI1_3 UART_RX_Inst#2fr35#2fAEQB<3> 
+ UART_RX_Inst#2fr35#2fLTV<3> UART_RX_Inst#2fr35#2fLTV2<3> / NAND2
XUART_RX_Inst#2fr35#2fULTI1_2 UART_RX_Inst#2fr35#2fAEQB<2> 
+ UART_RX_Inst#2fr35#2fLTV<2> UART_RX_Inst#2fr35#2fLTV2<2> / NAND2
XUART_RX_Inst#2fr35#2fULTI2_1 UART_RX_Inst#2fr35#2fLTV1<1> 
+ UART_RX_Inst#2fr35#2fLTV2<1> UART_RX_Inst#2fr35#2fLTV<2> / NAND2
XUART_RX_Inst#2fr35#2fULTI1_1 UART_RX_Inst#2fr35#2fAEQB<1> 
+ UART_RX_Inst#2fr35#2fLTV<1> UART_RX_Inst#2fr35#2fLTV2<1> / NAND2
XUART_TX_Inst#2fr31#2fULTI1 UART_TX_Inst#2fr31#2fAEQB<10> 
+ UART_TX_Inst#2fr31#2fLTV<10> UART_TX_Inst#2fr31#2fLTV2<10> / NAND2
XUART_TX_Inst#2fr31#2fULTI1_9 UART_TX_Inst#2fr31#2fAEQB<9> 
+ UART_TX_Inst#2fr31#2fLTV<9> UART_TX_Inst#2fr31#2fLTV2<9> / NAND2
XUART_TX_Inst#2fr31#2fULTI1_8 UART_TX_Inst#2fr31#2fAEQB<8> 
+ UART_TX_Inst#2fr31#2fLTV<8> UART_TX_Inst#2fr31#2fLTV2<8> / NAND2
XUART_TX_Inst#2fr31#2fULTI1_7 UART_TX_Inst#2fr31#2fAEQB<7> 
+ UART_TX_Inst#2fr31#2fLTV<7> UART_TX_Inst#2fr31#2fLTV2<7> / NAND2
XUART_TX_Inst#2fr31#2fULTI1_6 UART_TX_Inst#2fr31#2fAEQB<6> 
+ UART_TX_Inst#2fr31#2fLTV<6> UART_TX_Inst#2fr31#2fLTV2<6> / NAND2
XUART_TX_Inst#2fr31#2fULTI1_5 UART_TX_Inst#2fr31#2fAEQB<5> 
+ UART_TX_Inst#2fr31#2fLTV<5> UART_TX_Inst#2fr31#2fLTV2<5> / NAND2
XUART_TX_Inst#2fr31#2fULTI1_4 UART_TX_Inst#2fr31#2fAEQB<4> 
+ UART_TX_Inst#2fr31#2fLTV<4> UART_TX_Inst#2fr31#2fLTV2<4> / NAND2
XUART_TX_Inst#2fr31#2fULTI1_3 UART_TX_Inst#2fr31#2fAEQB<3> 
+ UART_TX_Inst#2fr31#2fLTV<3> UART_TX_Inst#2fr31#2fLTV2<3> / NAND2
XUART_TX_Inst#2fr31#2fULTI1_2 UART_TX_Inst#2fr31#2fAEQB<2> 
+ UART_TX_Inst#2fr31#2fLTV<2> UART_TX_Inst#2fr31#2fLTV2<2> / NAND2
XUART_TX_Inst#2fr31#2fULTI1_1 UART_TX_Inst#2fr31#2fAEQB<1> 
+ UART_TX_Inst#2fr31#2fLTV<1> UART_TX_Inst#2fr31#2fLTV2<1> / NAND2
XUART_RX_Inst#2fr35#2fULTI0_9 n63 UART_RX_Inst#2fU3#2fU1#2fZ_9 
+ UART_RX_Inst#2fr35#2fLTV1<9> / NAND2
XUART_RX_Inst#2fr35#2fULTI0_6 n66 UART_RX_Inst#2fU3#2fU1#2fZ_9 
+ UART_RX_Inst#2fr35#2fLTV1<6> / NAND2
XUART_RX_Inst#2fr35#2fULTI0_7 n65 UART_RX_Inst#2fU3#2fU1#2fZ_7 
+ UART_RX_Inst#2fr35#2fLTV1<7> / NAND2
XUART_TX_Inst#2fU78 UART_TX_Inst#2fn59 UART_TX_Inst#2fn60 UART_TX_Inst#2fm121 
+ / NAND2
XUART_TX_Inst#2fU68 i_TX_Valid UART_TX_Inst#2fm16 UART_TX_Inst#2fn43 / NAND2
XUART_TX_Inst#2fU79 UART_TX_Inst#2fm20 UART_TX_Inst#2fn48 UART_TX_Inst#2fn60 / 
+ NAND2
XUART_TX_Inst#2fU60 UART_TX_Inst#2fm146 UART_TX_Inst#2fn44 UART_TX_Inst#2fn42 
+ / NAND2
XUART_TX_Inst#2fC231 UART_TX_Inst#2fr_Clock_Count<0> UART_TX_Inst#2fn88 
+ UART_TX_Inst#2fm145 / NAND2
XUART_TX_Inst#2fC230 UART_TX_Inst#2fr31#2fAEQB<1> UART_TX_Inst#2fn87 
+ UART_TX_Inst#2fm144 / NAND2
XUART_TX_Inst#2fC229 UART_TX_Inst#2fn85 UART_TX_Inst#2fn86 UART_TX_Inst#2fm143 
+ / NAND2
XUART_TX_Inst#2fC228 UART_TX_Inst#2fn83 UART_TX_Inst#2fn84 UART_TX_Inst#2fm142 
+ / NAND2
XUART_TX_Inst#2fC226 UART_TX_Inst#2fr31#2fAEQB<5> UART_TX_Inst#2fn80 
+ UART_TX_Inst#2fm140 / NAND2
XUART_TX_Inst#2fC225 UART_TX_Inst#2fr31#2fAEQB<6> UART_TX_Inst#2fn79 
+ UART_TX_Inst#2fm139 / NAND2
XUART_TX_Inst#2fC227 UART_TX_Inst#2fn81 UART_TX_Inst#2fn82 UART_TX_Inst#2fm141 
+ / NAND2
XUART_TX_Inst#2fC223 UART_TX_Inst#2fr31#2fAEQB<8> UART_TX_Inst#2fn76 
+ UART_TX_Inst#2fm137 / NAND2
XUART_TX_Inst#2fC222 UART_TX_Inst#2fr31#2fAEQB<9> UART_TX_Inst#2fn75 
+ UART_TX_Inst#2fm136 / NAND2
XUART_TX_Inst#2fC224 UART_TX_Inst#2fn77 UART_TX_Inst#2fn78 UART_TX_Inst#2fm138 
+ / NAND2
XUART_TX_Inst#2flt_109#2fULTI1_1 UART_TX_Inst#2flt_109#2fAEQB<1> 
+ UART_TX_Inst#2flt_109#2fLTV<1> UART_TX_Inst#2flt_109#2fLTV2<1> / NAND2
XUART_TX_Inst#2flt_109#2fULTI2_1 UART_TX_Inst#2flt_109#2fLTV1<1> 
+ UART_TX_Inst#2flt_109#2fLTV2<1> UART_TX_Inst#2flt_109#2fLTV<2> / NAND2
XUART_TX_Inst#2flt_109#2fULTI1 UART_TX_Inst#2flt_109#2fAEQB<2> 
+ UART_TX_Inst#2flt_109#2fLTV<2> UART_TX_Inst#2flt_109#2fLTV2<2> / NAND2
XUART_TX_Inst#2flt_109#2fULTI2 UART_TX_Inst#2flt_109#2fLTV1<2> 
+ UART_TX_Inst#2flt_109#2fLTV2<2> UART_TX_Inst#2fm64 / NAND2
XUART_TX_Inst#2fU77 UART_TX_Inst#2fm64 UART_TX_Inst#2fm20 UART_TX_Inst#2fn55 / 
+ NAND2
XUART_TX_Inst#2fU59 UART_TX_Inst#2fn42 UART_TX_Inst#2fn43 UART_TX_Inst#2fm127 
+ / NAND2
XUART_TX_Inst#2fU62 UART_TX_Inst#2fm18 UART_TX_Inst#2fn48 UART_TX_Inst#2fn47 / 
+ NAND2
XUART_TX_Inst#2fU63 UART_TX_Inst#2fn44 UART_TX_Inst#2fn49 UART_TX_Inst#2fn45 / 
+ NAND2
XUART_RX_Inst#2fC335 UART_RX_Inst#2fm226 UART_RX_Inst#2fm11 UART_RX_Inst#2fn75 
+ / NAND2
XUART_RX_Inst#2fC334 UART_RX_Inst#2fm9 UART_RX_Inst#2fm10 UART_RX_Inst#2fn137 
+ / NAND2
XUART_RX_Inst#2fC332 UART_RX_Inst#2fr_Bit_Index[0] UART_RX_Inst#2fm7 
+ UART_RX_Inst#2fn136 / NAND2
XUART_RX_Inst#2fC333 UART_RX_Inst#2fm225 UART_RX_Inst#2fm8 UART_RX_Inst#2fn76 
+ / NAND2
XUART_RX_Inst#2fC330 UART_RX_Inst#2fm5 UART_RX_Inst#2flt_110#2fAEQB<1> 
+ UART_RX_Inst#2fn135 / NAND2
XUART_RX_Inst#2fC331 UART_RX_Inst#2fm224 UART_RX_Inst#2fm6 UART_RX_Inst#2fn77 
+ / NAND2
XUART_RX_Inst#2fC328 UART_RX_Inst#2fr_Bit_Index[0] 
+ UART_RX_Inst#2flt_110#2fAEQB<1> UART_RX_Inst#2fn134 / NAND2
XUART_RX_Inst#2fC329 UART_RX_Inst#2fm223 UART_RX_Inst#2fm4 UART_RX_Inst#2fn78 
+ / NAND2
XUART_RX_Inst#2fC327 UART_RX_Inst#2fm222 UART_RX_Inst#2flt_110#2fAEQB<2> 
+ UART_RX_Inst#2fn79 / NAND2
XUART_RX_Inst#2fC326 UART_RX_Inst#2fm2 UART_RX_Inst#2fm3 UART_RX_Inst#2fn133 / 
+ NAND2
XUART_TX_Inst#2fU47 UART_TX_Inst#2fn11 UART_TX_Inst#2fn50 UART_TX_Inst#2fn59 / 
+ NAND2
XUART_TX_Inst#2fU51 UART_TX_Inst#2fr_SM_Main<0> UART_TX_Inst#2fn37 
+ UART_TX_Inst#2fn36 / NAND2
XUART_TX_Inst#2fU56 UART_TX_Inst#2fr_SM_Main<0> UART_TX_Inst#2fn41 
+ UART_TX_Inst#2fm17 / NAND2
XUART_RX_Inst#2fC324 UART_RX_Inst#2fr_Bit_Index[0] UART_RX_Inst#2fm1 
+ UART_RX_Inst#2fn132 / NAND2
XUART_RX_Inst#2fC325 UART_RX_Inst#2fm221 UART_RX_Inst#2flt_110#2fAEQB<2> 
+ UART_RX_Inst#2fn80 / NAND2
XUART_RX_Inst#2fC322 UART_RX_Inst#2fm0 UART_RX_Inst#2flt_110#2fAEQB<1> 
+ UART_RX_Inst#2fn131 / NAND2
XUART_RX_Inst#2fC323 UART_RX_Inst#2fm220 UART_RX_Inst#2flt_110#2fAEQB<2> 
+ UART_RX_Inst#2fn81 / NAND2
XUART_RX_Inst#2fC320 UART_RX_Inst#2fr_Bit_Index[0] 
+ UART_RX_Inst#2flt_110#2fAEQB<1> UART_RX_Inst#2fn130 / NAND2
XUART_RX_Inst#2fC321 UART_RX_Inst#2fm219 UART_RX_Inst#2flt_110#2fAEQB<2> 
+ UART_RX_Inst#2fn82 / NAND2
XUART_TX_Inst#2fU48 UART_TX_Inst#2fr_SM_Main<0> UART_TX_Inst#2fr_SM_Main<1> 
+ UART_TX_Inst#2fn50 / NAND2
XUART_RX_Inst#2fU113 UART_RX_Inst#2fm145 UART_RX_Inst#2fm202 
+ UART_RX_Inst#2fn93 / NAND2
XUART_RX_Inst#2fU120 UART_RX_Inst#2fn102 UART_RX_Inst#2fn103 
+ UART_RX_Inst#2fn101 / NAND2
XUART_RX_Inst#2fU119 UART_RX_Inst#2fm145 UART_RX_Inst#2fn101 
+ UART_RX_Inst#2fn96 / NAND2
XUART_RX_Inst#2fU116 UART_RX_Inst#2fn99 UART_RX_Inst#2fn95 UART_RX_Inst#2fn98 
+ / NAND2
XUART_RX_Inst#2fC28 UART_RX_Inst#2fr_RX_State<2> UART_RX_Inst#2fm24 
+ UART_RX_Inst#2fm37 / NAND2
XUART_RX_Inst#2fC24 UART_RX_Inst#2fm23 UART_RX_Inst#2fr_RX_State<1> 
+ UART_RX_Inst#2fm34 / NAND2
XUART_RX_Inst#2fU97 UART_RX_Inst#2fr_RX_State<0> UART_RX_Inst#2fn86 
+ UART_RX_Inst#2fm35 / NAND2
XUART_RX_Inst#2fC19 UART_RX_Inst#2fm23 UART_RX_Inst#2fr_RX_State<1> 
+ UART_RX_Inst#2fm31 / NAND2
XUART_RX_Inst#2fC15 UART_RX_Inst#2fm23 UART_RX_Inst#2fm24 UART_RX_Inst#2fm28 / 
+ NAND2
XUART_RX_Inst#2fU101 UART_RX_Inst#2fr_RX_State<0> UART_RX_Inst#2fn88 
+ UART_RX_Inst#2fm29 / NAND2
XUART_RX_Inst#2fC12 UART_RX_Inst#2fm23 UART_RX_Inst#2fm24 UART_RX_Inst#2fn83 / 
+ NAND2
XUART_RX_Inst#2fU173 UART_RX_Inst#2fm26 UART_RX_Inst#2fn84 UART_RX_Inst#2fn100 
+ / NAND2
XUART_RX_Inst#2fU161 i_RX_Serial UART_RX_Inst#2fn94 UART_RX_Inst#2fn125 / NAND2
XUART_RX_Inst#2fU160 UART_RX_Inst#2fU3#2fU1#2fZ_7 UART_RX_Inst#2fn125 
+ UART_RX_Inst#2fn124 / NAND2
XUART_RX_Inst#2fU90 UART_RX_Inst#2flt_110#2fAEQB<1> 
+ UART_RX_Inst#2fr_Bit_Index[0] UART_RX_Inst#2fn73 / NAND2
XUART_RX_Inst#2fU163 UART_RX_Inst#2fn102 UART_RX_Inst#2fn92 
+ UART_RX_Inst#2fU3#2fU1#2fZ_9 / NAND2
XUART_RX_Inst#2fU157 UART_RX_Inst#2fn123 UART_RX_Inst#2fn103 
+ UART_RX_Inst#2fn122 / NAND2