* SPICE NETLIST
***************************************

.SUBCKT efuse in out
.ENDS
***************************************
.SUBCKT subc SUBCON sub
.ENDS
***************************************
.SUBCKT sblkndres IN OUT SUB
.ENDS
***************************************
.SUBCKT sblkpdres IN OUT SUB
.ENDS
***************************************
.SUBCKT esdscr_dw pd nw sx nd tds1 tds2
.ENDS
***************************************
.SUBCKT esdscr_tw pd nw pw nd tds1 tds2
.ENDS
***************************************
.SUBCKT esdscr_dw_rf pd nw sx nd tds1 tds2
.ENDS
***************************************
.SUBCKT esdscr_tw_rf pd nw pw nd tds1 tds2
.ENDS
***************************************
.SUBCKT npolyf_s PLUS MINUS SUB
.ENDS
***************************************
.SUBCKT npolyf_u PLUS MINUS SUB
.ENDS
***************************************
.SUBCKT ppolyf_s PLUS MINUS SUB
.ENDS
***************************************
.SUBCKT nplus_s PLUS MINUS SUB
.ENDS
***************************************
.SUBCKT pplus_s PLUS MINUS SUB
.ENDS
***************************************
.SUBCKT pplus_u PLUS MINUS SUB
.ENDS
***************************************
.SUBCKT nwella PLUS MINUS SUB
.ENDS
***************************************
.SUBCKT indp out in gnd
.ENDS
***************************************
.SUBCKT symindp outpr outse ct BULK
.ENDS
***************************************
.SUBCKT nfettw G S D B tw sx
.ENDS
***************************************
.SUBCKT lvtnfettw G S D B tw sx
.ENDS
***************************************
.SUBCKT hvtnfettw G S D B tw sx
.ENDS
***************************************
.SUBCKT dgvnfettw G S D B tw sx
.ENDS
***************************************
.SUBCKT dgnfettw G S D B tw sx
.ENDS
***************************************
.SUBCKT dgxnfettw G S D B tw sx
.ENDS
***************************************
.SUBCKT nfettw_rf G S D B tw sx
.ENDS
***************************************
.SUBCKT lvtnfettw_rf G S D B tw sx
.ENDS
***************************************
.SUBCKT hvtnfettw_rf G S D B tw sx
.ENDS
***************************************
.SUBCKT dgvnfettw_rf G S D B tw sx
.ENDS
***************************************
.SUBCKT dgnfettw_rf G S D B tw sx
.ENDS
***************************************
.SUBCKT bondpad in gp sub
.ENDS
***************************************
.SUBCKT singlecpw va vb vshield
.ENDS
***************************************
.SUBCKT coupledcpw va1 va2 vb1 vb2 vshield
.ENDS
***************************************
.SUBCKT singlewire va vb vshield
.ENDS
***************************************
.SUBCKT coupledwires va1 va2 vb1 vb2 vshield
.ENDS
***************************************
.SUBCKT rfline in out gnd
.ENDS
***************************************
.SUBCKT ICV_1 1 2 3 4 5 6 7 8 9 10 11 12 13 14 15 16 17 18 19 20
+ 21 22 23 24 25 26 27 28 29 30 31 32 33 34 35 36 37 38 39 40
+ 41 42 43 44 45 46 47 48 49 50 51 52 53 54 55 56 57 58 59 60
+ 61 62 63 64 65 66 67 68 69 70 71 72 73 74 75 76 77 78 79 80
+ 81 82 83 84 85 86 87 88 89 90 91 92 93 94 95 96 97 98 99 100
+ 101 102 103 104 105 106 107 108 109 110 111 112 113 114 115 116 117 118 119 120
+ 121 122 123 124 125 126 127 128 129 130 131 132 133 134 135 136 137 138 139 140
+ 141 142 143 144 145 146 147 148 149
*.CALIBRE ICV_CELL 2
** N=269 EP=149 IP=0 FDC=341
M0 179 2 151 120 nfet L=6.5e-08 W=5.6e-07 m=1 nf=1 mpl=1 par=1 ptwell=0 cnr_switch=0 pccrit=0 $X=9809 $Y=161730 $D=168
M1 120 3 179 120 nfet L=6.5e-08 W=5.6e-07 m=1 nf=1 mpl=1 par=1 ptwell=0 cnr_switch=0 pccrit=0 $X=10647 $Y=161730 $D=168
M2 152 151 120 120 nfet L=6.5e-08 W=5.6e-07 m=1 nf=1 mpl=1 par=1 ptwell=0 cnr_switch=0 pccrit=0 $X=11966 $Y=161730 $D=168
M3 180 153 154 120 nfet L=6.5e-08 W=5.6e-07 m=1 nf=1 mpl=1 par=1 ptwell=0 cnr_switch=0 pccrit=0 $X=19689 $Y=161730 $D=168
M4 120 152 180 120 nfet L=6.5e-08 W=5.6e-07 m=1 nf=1 mpl=1 par=1 ptwell=0 cnr_switch=0 pccrit=0 $X=20527 $Y=161730 $D=168
M5 120 16 153 120 nfet L=6.5e-08 W=5.6e-07 m=1 nf=1 mpl=1 par=1 ptwell=0 cnr_switch=0 pccrit=0 $X=22029 $Y=161730 $D=168
M6 120 25 7 120 nfet L=6.5e-08 W=5.6e-07 m=1 nf=1 mpl=1 par=1 ptwell=0 cnr_switch=0 pccrit=0 $X=30869 $Y=161730 $D=168
M7 35 154 120 120 nfet L=6.5e-08 W=5.6e-07 m=1 nf=1 mpl=1 par=1 ptwell=0 cnr_switch=0 pccrit=0 $X=40826 $Y=161730 $D=168
M8 156 155 120 120 nfet L=6.5e-08 W=5.6e-07 m=1 nf=1 mpl=1 par=1 ptwell=0 cnr_switch=0 pccrit=0 $X=50446 $Y=161730 $D=168
M9 39 156 120 120 nfet L=6.5e-08 W=5.6e-07 m=1 nf=1 mpl=1 par=1 ptwell=0 cnr_switch=0 pccrit=0 $X=51746 $Y=161730 $D=168
M10 155 42 120 120 nfet L=6.5e-08 W=5.6e-07 m=1 nf=1 mpl=1 par=1 ptwell=0 cnr_switch=0 pccrit=0 $X=59488 $Y=161730 $D=168
M11 120 45 155 120 nfet L=6.5e-08 W=5.6e-07 m=1 nf=1 mpl=1 par=1 ptwell=0 cnr_switch=0 pccrit=0 $X=60326 $Y=161730 $D=168
M12 120 157 47 120 nfet L=6.5e-08 W=5.6e-07 m=1 nf=1 mpl=1 par=1 ptwell=0 cnr_switch=0 pccrit=0 $X=61549 $Y=161730 $D=168
M13 181 158 120 120 nfet L=6.5e-08 W=5.6e-07 m=1 nf=1 mpl=1 par=1 ptwell=0 cnr_switch=0 pccrit=0 $X=62868 $Y=161730 $D=168
M14 157 42 181 120 nfet L=6.5e-08 W=5.6e-07 m=1 nf=1 mpl=1 par=1 ptwell=0 cnr_switch=0 pccrit=0 $X=63706 $Y=161730 $D=168
M15 120 159 158 120 nfet L=6.5e-08 W=5.6e-07 m=1 nf=1 mpl=1 par=1 ptwell=0 cnr_switch=0 pccrit=0 $X=68569 $Y=161730 $D=168
M16 182 54 120 120 nfet L=6.5e-08 W=5.6e-07 m=1 nf=1 mpl=1 par=1 ptwell=0 cnr_switch=0 pccrit=0 $X=69888 $Y=161730 $D=168
M17 159 56 182 120 nfet L=6.5e-08 W=5.6e-07 m=1 nf=1 mpl=1 par=1 ptwell=0 cnr_switch=0 pccrit=0 $X=70726 $Y=161730 $D=168
M18 183 56 160 120 nfet L=6.5e-08 W=5.6e-07 m=1 nf=1 mpl=1 par=1 ptwell=0 cnr_switch=0 pccrit=0 $X=71689 $Y=161730 $D=168
M19 120 54 183 120 nfet L=6.5e-08 W=5.6e-07 m=1 nf=1 mpl=1 par=1 ptwell=0 cnr_switch=0 pccrit=0 $X=72527 $Y=161730 $D=168
M20 184 57 161 120 nfet L=6.5e-08 W=5.6e-07 m=1 nf=1 mpl=1 par=1 ptwell=0 cnr_switch=0 pccrit=0 $X=73769 $Y=161730 $D=168
M21 120 54 184 120 nfet L=6.5e-08 W=5.6e-07 m=1 nf=1 mpl=1 par=1 ptwell=0 cnr_switch=0 pccrit=0 $X=74607 $Y=161730 $D=168
M22 59 160 120 120 nfet L=6.5e-08 W=5.6e-07 m=1 nf=1 mpl=1 par=1 ptwell=0 cnr_switch=0 pccrit=0 $X=78526 $Y=161730 $D=168
M23 120 162 61 120 nfet L=6.5e-08 W=5.6e-07 m=1 nf=1 mpl=1 par=1 ptwell=0 cnr_switch=0 pccrit=0 $X=80009 $Y=161730 $D=168
M24 120 163 162 120 nfet L=6.5e-08 W=5.6e-07 m=1 nf=1 mpl=1 par=1 ptwell=0 cnr_switch=0 pccrit=0 $X=81309 $Y=161730 $D=168
M25 164 161 120 120 nfet L=6.5e-08 W=5.6e-07 m=1 nf=1 mpl=1 par=1 ptwell=0 cnr_switch=0 pccrit=0 $X=82349 $Y=161730 $D=168
M26 120 42 164 120 nfet L=6.5e-08 W=5.6e-07 m=1 nf=1 mpl=1 par=1 ptwell=0 cnr_switch=0 pccrit=0 $X=83187 $Y=161730 $D=168
M27 163 164 120 120 nfet L=6.5e-08 W=5.6e-07 m=1 nf=1 mpl=1 par=1 ptwell=0 cnr_switch=0 pccrit=0 $X=84506 $Y=161730 $D=168
M28 68 165 120 120 nfet L=6.5e-08 W=5.6e-07 m=1 nf=1 mpl=1 par=1 ptwell=0 cnr_switch=0 pccrit=0 $X=91526 $Y=161730 $D=168
M29 77 76 120 120 nfet L=6.5e-08 W=5.6e-07 m=1 nf=1 mpl=1 par=1 ptwell=0 cnr_switch=0 pccrit=0 $X=100886 $Y=161730 $D=168
M30 120 76 168 120 nfet L=6.5e-08 W=5.6e-07 m=1 nf=1 mpl=1 par=1 ptwell=0 cnr_switch=0 pccrit=0 $X=102261 $Y=161730 $D=168
M31 168 166 120 120 nfet L=6.5e-08 W=5.6e-07 m=1 nf=1 mpl=1 par=1 ptwell=0 cnr_switch=0 pccrit=0 $X=102908 $Y=161730 $D=168
M32 165 167 168 120 nfet L=6.5e-08 W=5.6e-07 m=1 nf=1 mpl=1 par=1 ptwell=0 cnr_switch=0 pccrit=0 $X=103429 $Y=161730 $D=168
M33 168 77 165 120 nfet L=6.5e-08 W=5.6e-07 m=1 nf=1 mpl=1 par=1 ptwell=0 cnr_switch=0 pccrit=0 $X=103992 $Y=161730 $D=168
M34 120 86 166 120 nfet L=6.5e-08 W=5.6e-07 m=1 nf=1 mpl=1 par=1 ptwell=0 cnr_switch=0 pccrit=0 $X=111469 $Y=161730 $D=168
M35 82 87 170 120 nfet L=6.5e-08 W=5.6e-07 m=1 nf=1 mpl=1 par=1 ptwell=0 cnr_switch=0 pccrit=0 $X=112523 $Y=161730 $D=168
M36 170 166 82 120 nfet L=6.5e-08 W=5.6e-07 m=1 nf=1 mpl=1 par=1 ptwell=0 cnr_switch=0 pccrit=0 $X=113086 $Y=161730 $D=168
M37 120 169 170 120 nfet L=6.5e-08 W=5.6e-07 m=1 nf=1 mpl=1 par=1 ptwell=0 cnr_switch=0 pccrit=0 $X=113607 $Y=161730 $D=168
M38 170 89 120 120 nfet L=6.5e-08 W=5.6e-07 m=1 nf=1 mpl=1 par=1 ptwell=0 cnr_switch=0 pccrit=0 $X=114254 $Y=161730 $D=168
M39 87 89 120 120 nfet L=6.5e-08 W=5.6e-07 m=1 nf=1 mpl=1 par=1 ptwell=0 cnr_switch=0 pccrit=0 $X=115446 $Y=161730 $D=168
M40 120 95 94 120 nfet L=6.5e-08 W=5.6e-07 m=1 nf=1 mpl=1 par=1 ptwell=0 cnr_switch=0 pccrit=0 $X=121869 $Y=161730 $D=168
M41 102 87 172 120 nfet L=6.5e-08 W=5.6e-07 m=1 nf=1 mpl=1 par=1 ptwell=0 cnr_switch=0 pccrit=0 $X=128643 $Y=161730 $D=168
M42 172 100 102 120 nfet L=6.5e-08 W=5.6e-07 m=1 nf=1 mpl=1 par=1 ptwell=0 cnr_switch=0 pccrit=0 $X=129206 $Y=161730 $D=168
M43 120 171 172 120 nfet L=6.5e-08 W=5.6e-07 m=1 nf=1 mpl=1 par=1 ptwell=0 cnr_switch=0 pccrit=0 $X=129727 $Y=161730 $D=168
M44 172 89 120 120 nfet L=6.5e-08 W=5.6e-07 m=1 nf=1 mpl=1 par=1 ptwell=0 cnr_switch=0 pccrit=0 $X=130374 $Y=161730 $D=168
M45 167 103 120 120 nfet L=6.5e-08 W=5.6e-07 m=1 nf=1 mpl=1 par=1 ptwell=0 cnr_switch=0 pccrit=0 $X=131566 $Y=161730 $D=168
M46 107 87 174 120 nfet L=6.5e-08 W=5.6e-07 m=1 nf=1 mpl=1 par=1 ptwell=0 cnr_switch=0 pccrit=0 $X=132803 $Y=161730 $D=168
M47 174 167 107 120 nfet L=6.5e-08 W=5.6e-07 m=1 nf=1 mpl=1 par=1 ptwell=0 cnr_switch=0 pccrit=0 $X=133366 $Y=161730 $D=168
M48 120 173 174 120 nfet L=6.5e-08 W=5.6e-07 m=1 nf=1 mpl=1 par=1 ptwell=0 cnr_switch=0 pccrit=0 $X=133887 $Y=161730 $D=168
M49 174 89 120 120 nfet L=6.5e-08 W=5.6e-07 m=1 nf=1 mpl=1 par=1 ptwell=0 cnr_switch=0 pccrit=0 $X=134534 $Y=161730 $D=168
M50 13 111 120 120 nfet L=6.5e-08 W=5.6e-07 m=1 nf=1 mpl=1 par=1 ptwell=0 cnr_switch=0 pccrit=0 $X=139886 $Y=161730 $D=168
M51 175 112 120 120 nfet L=6.5e-08 W=5.6e-07 m=1 nf=1 mpl=1 par=1 ptwell=0 cnr_switch=0 pccrit=0 $X=141186 $Y=161730 $D=168
M52 116 111 177 120 nfet L=6.5e-08 W=5.6e-07 m=1 nf=1 mpl=1 par=1 ptwell=0 cnr_switch=0 pccrit=0 $X=142423 $Y=161730 $D=168
M53 177 175 116 120 nfet L=6.5e-08 W=5.6e-07 m=1 nf=1 mpl=1 par=1 ptwell=0 cnr_switch=0 pccrit=0 $X=142986 $Y=161730 $D=168
M54 120 176 177 120 nfet L=6.5e-08 W=5.6e-07 m=1 nf=1 mpl=1 par=1 ptwell=0 cnr_switch=0 pccrit=0 $X=143507 $Y=161730 $D=168
M55 177 117 120 120 nfet L=6.5e-08 W=5.6e-07 m=1 nf=1 mpl=1 par=1 ptwell=0 cnr_switch=0 pccrit=0 $X=144154 $Y=161730 $D=168
M56 120 111 176 120 nfet L=6.5e-08 W=5.6e-07 m=1 nf=1 mpl=1 par=1 ptwell=0 cnr_switch=0 pccrit=0 $X=145529 $Y=161730 $D=168
M57 120 122 88 120 nfet L=6.5e-08 W=5.6e-07 m=1 nf=1 mpl=1 par=1 ptwell=0 cnr_switch=0 pccrit=0 $X=149429 $Y=161730 $D=168
M58 120 123 101 120 nfet L=6.5e-08 W=5.6e-07 m=1 nf=1 mpl=1 par=1 ptwell=0 cnr_switch=0 pccrit=0 $X=150729 $Y=161730 $D=168
M59 185 178 120 120 nfet L=6.5e-08 W=5.6e-07 m=1 nf=1 mpl=1 par=1 ptwell=0 cnr_switch=0 pccrit=0 $X=152048 $Y=161730 $D=168
M60 89 127 185 120 nfet L=6.5e-08 W=5.6e-07 m=1 nf=1 mpl=1 par=1 ptwell=0 cnr_switch=0 pccrit=0 $X=152886 $Y=161730 $D=168
M61 120 128 178 120 nfet L=6.5e-08 W=5.6e-07 m=1 nf=1 mpl=1 par=1 ptwell=0 cnr_switch=0 pccrit=0 $X=154109 $Y=161730 $D=168
M62 65 111 120 120 nfet L=6.5e-08 W=5.6e-07 m=1 nf=1 mpl=1 par=1 ptwell=0 cnr_switch=0 pccrit=0 $X=155226 $Y=161730 $D=168
M63 120 135 133 120 nfet L=6.5e-08 W=5.6e-07 m=1 nf=1 mpl=1 par=1 ptwell=0 cnr_switch=0 pccrit=0 $X=159569 $Y=161730 $D=168
M64 120 138 173 120 nfet L=6.5e-08 W=5.6e-07 m=1 nf=1 mpl=1 par=1 ptwell=0 cnr_switch=0 pccrit=0 $X=160869 $Y=161730 $D=168
M65 120 141 169 120 nfet L=6.5e-08 W=5.6e-07 m=1 nf=1 mpl=1 par=1 ptwell=0 cnr_switch=0 pccrit=0 $X=162169 $Y=161730 $D=168
M66 120 143 142 120 nfet L=6.5e-08 W=5.6e-07 m=1 nf=1 mpl=1 par=1 ptwell=0 cnr_switch=0 pccrit=0 $X=163469 $Y=161730 $D=168
M67 120 146 144 120 nfet L=6.5e-08 W=5.6e-07 m=1 nf=1 mpl=1 par=1 ptwell=0 cnr_switch=0 pccrit=0 $X=164769 $Y=161730 $D=168
M68 120 148 171 120 nfet L=6.5e-08 W=5.6e-07 m=1 nf=1 mpl=1 par=1 ptwell=0 cnr_switch=0 pccrit=0 $X=166069 $Y=161730 $D=168
M69 1 2 151 1 pfet L=6.5e-08 W=9.55e-07 m=1 nf=1 mpl=1 par=1 ptwell=1 cnr_switch=0 pccrit=0 $X=9809 $Y=164519 $D=181
M70 1 4 2 1 pfet L=6.5e-08 W=9.55e-07 m=1 nf=1 mpl=1 par=1 ptwell=1 cnr_switch=0 pccrit=0 $X=10329 $Y=152559 $D=181
M71 151 3 1 1 pfet L=6.5e-08 W=9.55e-07 m=1 nf=1 mpl=1 par=1 ptwell=1 cnr_switch=0 pccrit=0 $X=10647 $Y=164519 $D=181
M72 1 5 3 1 pfet L=6.5e-08 W=9.55e-07 m=1 nf=1 mpl=1 par=1 ptwell=1 cnr_switch=0 pccrit=0 $X=11629 $Y=152559 $D=181
M73 152 151 1 1 pfet L=6.5e-08 W=9.55e-07 m=1 nf=1 mpl=1 par=1 ptwell=1 cnr_switch=0 pccrit=0 $X=11966 $Y=164519 $D=181
M74 1 6 5 1 pfet L=6.5e-08 W=9.55e-07 m=1 nf=1 mpl=1 par=1 ptwell=1 cnr_switch=0 pccrit=0 $X=13208 $Y=152559 $D=181
M75 5 7 1 1 pfet L=6.5e-08 W=9.55e-07 m=1 nf=1 mpl=1 par=1 ptwell=1 cnr_switch=0 pccrit=0 $X=14046 $Y=152559 $D=181
M76 1 8 4 1 pfet L=6.5e-08 W=9.55e-07 m=1 nf=1 mpl=1 par=1 ptwell=1 cnr_switch=0 pccrit=0 $X=15184 $Y=152559 $D=181
M77 186 13 9 1 pfet L=6.5e-08 W=9.55e-07 m=1 nf=1 mpl=1 par=1 ptwell=1 cnr_switch=0 pccrit=0 $X=15741 $Y=152559 $D=181
M78 1 8 186 1 pfet L=6.5e-08 W=9.55e-07 m=1 nf=1 mpl=1 par=1 ptwell=1 cnr_switch=2 pccrit=0 $X=16260 $Y=152559 $D=181
M79 187 9 1 1 pfet L=6.4e-08 W=9.55e-07 m=1 nf=1 mpl=1 par=1 ptwell=1 cnr_switch=0 pccrit=0 $X=16781 $Y=152559 $D=181
M80 8 11 187 1 pfet L=6.5e-08 W=9.55e-07 m=1 nf=1 mpl=1 par=1 ptwell=1 cnr_switch=0 pccrit=0 $X=17071 $Y=152559 $D=181
M81 188 10 8 1 pfet L=6.5e-08 W=9.55e-07 m=1 nf=1 mpl=1 par=1 ptwell=1 cnr_switch=0 pccrit=0 $X=17592 $Y=152559 $D=181
M82 1 15 188 1 pfet L=6.5e-08 W=9.55e-07 m=1 nf=1 mpl=1 par=1 ptwell=1 cnr_switch=0 pccrit=0 $X=18112 $Y=152559 $D=181
M83 189 15 1 1 pfet L=6.5e-08 W=9.55e-07 m=1 nf=1 mpl=1 par=1 ptwell=1 cnr_switch=0 pccrit=0 $X=18632 $Y=152559 $D=181
M84 12 10 189 1 pfet L=6.5e-08 W=9.55e-07 m=1 nf=1 mpl=1 par=1 ptwell=1 cnr_switch=0 pccrit=0 $X=19155 $Y=152559 $D=181
M85 190 11 12 1 pfet L=6.5e-08 W=9.55e-07 m=1 nf=1 mpl=1 par=1 ptwell=1 cnr_switch=0 pccrit=0 $X=19677 $Y=152559 $D=181
M86 1 153 154 1 pfet L=6.5e-08 W=9.55e-07 m=1 nf=1 mpl=1 par=1 ptwell=1 cnr_switch=0 pccrit=0 $X=19689 $Y=164519 $D=181
M87 1 14 190 1 pfet L=6.5e-08 W=9.55e-07 m=1 nf=1 mpl=1 par=1 ptwell=1 cnr_switch=0 pccrit=0 $X=20229 $Y=152559 $D=181
M88 154 152 1 1 pfet L=6.5e-08 W=9.55e-07 m=1 nf=1 mpl=1 par=1 ptwell=1 cnr_switch=0 pccrit=0 $X=20527 $Y=164519 $D=181
M89 191 12 1 1 pfet L=6.5e-08 W=9.55e-07 m=1 nf=1 mpl=1 par=1 ptwell=1 cnr_switch=0 pccrit=0 $X=20749 $Y=152559 $D=181
M90 15 13 191 1 pfet L=6.5e-08 W=9.55e-07 m=1 nf=1 mpl=1 par=1 ptwell=1 cnr_switch=0 pccrit=0 $X=21312 $Y=152559 $D=181
M91 1 10 11 1 pfet L=6.5e-08 W=9.55e-07 m=1 nf=1 mpl=1 par=1 ptwell=1 cnr_switch=0 pccrit=0 $X=21843 $Y=152559 $D=181
M92 1 16 153 1 pfet L=6.5e-08 W=9.55e-07 m=1 nf=1 mpl=1 par=1 ptwell=1 cnr_switch=0 pccrit=0 $X=22029 $Y=164519 $D=181
M93 10 17 1 1 pfet L=6.5e-08 W=9.55e-07 m=1 nf=1 mpl=1 par=1 ptwell=1 cnr_switch=0 pccrit=0 $X=22357 $Y=152559 $D=181
M94 1 18 16 1 pfet L=6.5e-08 W=9.55e-07 m=1 nf=1 mpl=1 par=1 ptwell=1 cnr_switch=0 pccrit=0 $X=23504 $Y=152559 $D=181
M95 192 13 19 1 pfet L=6.5e-08 W=9.55e-07 m=1 nf=1 mpl=1 par=1 ptwell=1 cnr_switch=0 pccrit=0 $X=24061 $Y=152559 $D=181
M96 1 18 192 1 pfet L=6.5e-08 W=9.55e-07 m=1 nf=1 mpl=1 par=1 ptwell=1 cnr_switch=2 pccrit=0 $X=24580 $Y=152559 $D=181
M97 193 19 1 1 pfet L=6.4e-08 W=9.55e-07 m=1 nf=1 mpl=1 par=1 ptwell=1 cnr_switch=0 pccrit=0 $X=25101 $Y=152559 $D=181
M98 18 21 193 1 pfet L=6.5e-08 W=9.55e-07 m=1 nf=1 mpl=1 par=1 ptwell=1 cnr_switch=0 pccrit=0 $X=25391 $Y=152559 $D=181
M99 194 20 18 1 pfet L=6.5e-08 W=9.55e-07 m=1 nf=1 mpl=1 par=1 ptwell=1 cnr_switch=0 pccrit=0 $X=25912 $Y=152559 $D=181
M100 1 24 194 1 pfet L=6.5e-08 W=9.55e-07 m=1 nf=1 mpl=1 par=1 ptwell=1 cnr_switch=0 pccrit=0 $X=26432 $Y=152559 $D=181
M101 195 24 1 1 pfet L=6.5e-08 W=9.55e-07 m=1 nf=1 mpl=1 par=1 ptwell=1 cnr_switch=0 pccrit=0 $X=26952 $Y=152559 $D=181
M102 22 20 195 1 pfet L=6.5e-08 W=9.55e-07 m=1 nf=1 mpl=1 par=1 ptwell=1 cnr_switch=0 pccrit=0 $X=27475 $Y=152559 $D=181
M103 196 21 22 1 pfet L=6.5e-08 W=9.55e-07 m=1 nf=1 mpl=1 par=1 ptwell=1 cnr_switch=0 pccrit=0 $X=27997 $Y=152559 $D=181
M104 1 23 196 1 pfet L=6.5e-08 W=9.55e-07 m=1 nf=1 mpl=1 par=1 ptwell=1 cnr_switch=0 pccrit=0 $X=28549 $Y=152559 $D=181
M105 197 22 1 1 pfet L=6.5e-08 W=9.55e-07 m=1 nf=1 mpl=1 par=1 ptwell=1 cnr_switch=0 pccrit=0 $X=29069 $Y=152559 $D=181
M106 24 13 197 1 pfet L=6.5e-08 W=9.55e-07 m=1 nf=1 mpl=1 par=1 ptwell=1 cnr_switch=0 pccrit=0 $X=29632 $Y=152559 $D=181
M107 1 20 21 1 pfet L=6.5e-08 W=9.55e-07 m=1 nf=1 mpl=1 par=1 ptwell=1 cnr_switch=0 pccrit=0 $X=30163 $Y=152559 $D=181
M108 20 17 1 1 pfet L=6.5e-08 W=9.55e-07 m=1 nf=1 mpl=1 par=1 ptwell=1 cnr_switch=0 pccrit=0 $X=30677 $Y=152559 $D=181
M109 1 25 7 1 pfet L=6.5e-08 W=9.55e-07 m=1 nf=1 mpl=1 par=1 ptwell=1 cnr_switch=0 pccrit=0 $X=30869 $Y=164519 $D=181
M110 1 25 26 1 pfet L=6.5e-08 W=9.55e-07 m=1 nf=1 mpl=1 par=1 ptwell=1 cnr_switch=0 pccrit=0 $X=31909 $Y=152559 $D=181
M111 27 25 1 1 pfet L=6.5e-08 W=9.55e-07 m=1 nf=1 mpl=1 par=1 ptwell=1 cnr_switch=0 pccrit=0 $X=33026 $Y=152559 $D=181
M112 1 28 25 1 pfet L=6.5e-08 W=9.55e-07 m=1 nf=1 mpl=1 par=1 ptwell=1 cnr_switch=0 pccrit=0 $X=34424 $Y=152559 $D=181
M113 198 13 29 1 pfet L=6.5e-08 W=9.55e-07 m=1 nf=1 mpl=1 par=1 ptwell=1 cnr_switch=0 pccrit=0 $X=34981 $Y=152559 $D=181
M114 1 28 198 1 pfet L=6.5e-08 W=9.55e-07 m=1 nf=1 mpl=1 par=1 ptwell=1 cnr_switch=2 pccrit=0 $X=35500 $Y=152559 $D=181
M115 199 29 1 1 pfet L=6.4e-08 W=9.55e-07 m=1 nf=1 mpl=1 par=1 ptwell=1 cnr_switch=0 pccrit=0 $X=36021 $Y=152559 $D=181
M116 28 31 199 1 pfet L=6.5e-08 W=9.55e-07 m=1 nf=1 mpl=1 par=1 ptwell=1 cnr_switch=0 pccrit=0 $X=36311 $Y=152559 $D=181
M117 200 30 28 1 pfet L=6.5e-08 W=9.55e-07 m=1 nf=1 mpl=1 par=1 ptwell=1 cnr_switch=0 pccrit=0 $X=36832 $Y=152559 $D=181
M118 1 34 200 1 pfet L=6.5e-08 W=9.55e-07 m=1 nf=1 mpl=1 par=1 ptwell=1 cnr_switch=0 pccrit=0 $X=37352 $Y=152559 $D=181
M119 201 34 1 1 pfet L=6.5e-08 W=9.55e-07 m=1 nf=1 mpl=1 par=1 ptwell=1 cnr_switch=0 pccrit=0 $X=37872 $Y=152559 $D=181
M120 32 30 201 1 pfet L=6.5e-08 W=9.55e-07 m=1 nf=1 mpl=1 par=1 ptwell=1 cnr_switch=0 pccrit=0 $X=38395 $Y=152559 $D=181
M121 202 31 32 1 pfet L=6.5e-08 W=9.55e-07 m=1 nf=1 mpl=1 par=1 ptwell=1 cnr_switch=0 pccrit=0 $X=38917 $Y=152559 $D=181
M122 1 33 202 1 pfet L=6.5e-08 W=9.55e-07 m=1 nf=1 mpl=1 par=1 ptwell=1 cnr_switch=0 pccrit=0 $X=39469 $Y=152559 $D=181
M123 203 32 1 1 pfet L=6.5e-08 W=9.55e-07 m=1 nf=1 mpl=1 par=1 ptwell=1 cnr_switch=0 pccrit=0 $X=39989 $Y=152559 $D=181
M124 34 13 203 1 pfet L=6.5e-08 W=9.55e-07 m=1 nf=1 mpl=1 par=1 ptwell=1 cnr_switch=0 pccrit=0 $X=40552 $Y=152559 $D=181
M125 35 154 1 1 pfet L=6.5e-08 W=9.55e-07 m=1 nf=1 mpl=1 par=1 ptwell=1 cnr_switch=0 pccrit=0 $X=40826 $Y=164519 $D=181
M126 1 30 31 1 pfet L=6.5e-08 W=9.55e-07 m=1 nf=1 mpl=1 par=1 ptwell=1 cnr_switch=0 pccrit=0 $X=41083 $Y=152559 $D=181
M127 30 17 1 1 pfet L=6.5e-08 W=9.55e-07 m=1 nf=1 mpl=1 par=1 ptwell=1 cnr_switch=0 pccrit=0 $X=41597 $Y=152559 $D=181
M128 1 37 36 1 pfet L=6.5e-08 W=9.55e-07 m=1 nf=1 mpl=1 par=1 ptwell=1 cnr_switch=0 pccrit=0 $X=42829 $Y=152559 $D=181
M129 156 155 1 1 pfet L=6.5e-08 W=9.55e-07 m=1 nf=1 mpl=1 par=1 ptwell=1 cnr_switch=0 pccrit=0 $X=50446 $Y=164519 $D=181
M130 1 35 40 1 pfet L=6.5e-08 W=9.55e-07 m=1 nf=1 mpl=1 par=1 ptwell=1 cnr_switch=0 pccrit=0 $X=50889 $Y=152559 $D=181
M131 40 38 1 1 pfet L=6.5e-08 W=9.55e-07 m=1 nf=1 mpl=1 par=1 ptwell=1 cnr_switch=0 pccrit=0 $X=51727 $Y=152559 $D=181
M132 39 156 1 1 pfet L=6.5e-08 W=9.55e-07 m=1 nf=1 mpl=1 par=1 ptwell=1 cnr_switch=0 pccrit=0 $X=51746 $Y=164519 $D=181
M133 1 17 41 1 pfet L=6.5e-08 W=9.55e-07 m=1 nf=1 mpl=1 par=1 ptwell=1 cnr_switch=0 pccrit=0 $X=58958 $Y=152559 $D=181
M134 43 41 1 1 pfet L=6.5e-08 W=9.55e-07 m=1 nf=1 mpl=1 par=1 ptwell=1 cnr_switch=0 pccrit=0 $X=59472 $Y=152559 $D=181
M135 204 42 155 1 pfet L=6.5e-08 W=9.55e-07 m=1 nf=1 mpl=1 par=1 ptwell=1 cnr_switch=0 pccrit=0 $X=59488 $Y=164519 $D=181
M136 205 13 44 1 pfet L=6.5e-08 W=9.55e-07 m=1 nf=1 mpl=1 par=1 ptwell=1 cnr_switch=0 pccrit=0 $X=60003 $Y=152559 $D=181
M137 1 45 204 1 pfet L=6.5e-08 W=9.55e-07 m=1 nf=1 mpl=1 par=1 ptwell=1 cnr_switch=0 pccrit=0 $X=60326 $Y=164519 $D=181
M138 1 48 205 1 pfet L=6.5e-08 W=9.55e-07 m=1 nf=1 mpl=1 par=1 ptwell=1 cnr_switch=0 pccrit=0 $X=60566 $Y=152559 $D=181
M139 206 46 1 1 pfet L=6.5e-08 W=9.55e-07 m=1 nf=1 mpl=1 par=1 ptwell=1 cnr_switch=0 pccrit=0 $X=61086 $Y=152559 $D=181
M140 1 157 47 1 pfet L=6.5e-08 W=9.55e-07 m=1 nf=1 mpl=1 par=1 ptwell=1 cnr_switch=0 pccrit=0 $X=61549 $Y=164519 $D=181
M141 48 43 206 1 pfet L=6.5e-08 W=9.55e-07 m=1 nf=1 mpl=1 par=1 ptwell=1 cnr_switch=0 pccrit=0 $X=61638 $Y=152559 $D=181
M142 207 41 48 1 pfet L=6.5e-08 W=9.55e-07 m=1 nf=1 mpl=1 par=1 ptwell=1 cnr_switch=0 pccrit=0 $X=62160 $Y=152559 $D=181
M143 1 44 207 1 pfet L=6.5e-08 W=9.55e-07 m=1 nf=1 mpl=1 par=1 ptwell=1 cnr_switch=0 pccrit=0 $X=62683 $Y=152559 $D=181
M144 1 158 157 1 pfet L=6.5e-08 W=9.55e-07 m=1 nf=1 mpl=1 par=1 ptwell=1 cnr_switch=0 pccrit=0 $X=62868 $Y=164519 $D=181
M145 208 44 1 1 pfet L=6.5e-08 W=9.55e-07 m=1 nf=1 mpl=1 par=1 ptwell=1 cnr_switch=0 pccrit=0 $X=63203 $Y=152559 $D=181
M146 157 42 1 1 pfet L=6.5e-08 W=9.55e-07 m=1 nf=1 mpl=1 par=1 ptwell=1 cnr_switch=0 pccrit=0 $X=63706 $Y=164519 $D=181
M147 49 41 208 1 pfet L=6.5e-08 W=9.55e-07 m=1 nf=1 mpl=1 par=1 ptwell=1 cnr_switch=0 pccrit=0 $X=63723 $Y=152559 $D=181
M148 209 43 49 1 pfet L=6.5e-08 W=9.55e-07 m=1 nf=1 mpl=1 par=1 ptwell=1 cnr_switch=0 pccrit=0 $X=64244 $Y=152559 $D=181
M149 1 50 209 1 pfet L=6.4e-08 W=9.55e-07 m=1 nf=1 mpl=1 par=1 ptwell=1 cnr_switch=0 pccrit=0 $X=64535 $Y=152559 $D=181
M150 210 49 1 1 pfet L=6.5e-08 W=9.55e-07 m=1 nf=1 mpl=1 par=1 ptwell=1 cnr_switch=2 pccrit=0 $X=65055 $Y=152559 $D=181
M151 50 13 210 1 pfet L=6.5e-08 W=9.55e-07 m=1 nf=1 mpl=1 par=1 ptwell=1 cnr_switch=0 pccrit=0 $X=65574 $Y=152559 $D=181
M152 42 49 1 1 pfet L=6.5e-08 W=9.55e-07 m=1 nf=1 mpl=1 par=1 ptwell=1 cnr_switch=0 pccrit=0 $X=66131 $Y=152559 $D=181
M153 1 52 51 1 pfet L=6.5e-08 W=9.55e-07 m=1 nf=1 mpl=1 par=1 ptwell=1 cnr_switch=0 pccrit=0 $X=67529 $Y=152559 $D=181
M154 1 159 158 1 pfet L=6.5e-08 W=9.55e-07 m=1 nf=1 mpl=1 par=1 ptwell=1 cnr_switch=0 pccrit=0 $X=68569 $Y=164519 $D=181
M155 1 53 38 1 pfet L=6.5e-08 W=9.55e-07 m=1 nf=1 mpl=1 par=1 ptwell=1 cnr_switch=0 pccrit=0 $X=68829 $Y=152559 $D=181
M156 1 54 159 1 pfet L=6.5e-08 W=9.55e-07 m=1 nf=1 mpl=1 par=1 ptwell=1 cnr_switch=0 pccrit=0 $X=69888 $Y=164519 $D=181
M157 1 55 45 1 pfet L=6.5e-08 W=9.55e-07 m=1 nf=1 mpl=1 par=1 ptwell=1 cnr_switch=0 pccrit=0 $X=70148 $Y=152559 $D=181
M158 159 56 1 1 pfet L=6.5e-08 W=9.55e-07 m=1 nf=1 mpl=1 par=1 ptwell=1 cnr_switch=0 pccrit=0 $X=70726 $Y=164519 $D=181
M159 45 56 1 1 pfet L=6.5e-08 W=9.55e-07 m=1 nf=1 mpl=1 par=1 ptwell=1 cnr_switch=0 pccrit=0 $X=70986 $Y=152559 $D=181
M160 1 56 160 1 pfet L=6.5e-08 W=9.55e-07 m=1 nf=1 mpl=1 par=1 ptwell=1 cnr_switch=0 pccrit=0 $X=71689 $Y=164519 $D=181
M161 54 55 1 1 pfet L=6.5e-08 W=9.55e-07 m=1 nf=1 mpl=1 par=1 ptwell=1 cnr_switch=0 pccrit=0 $X=72026 $Y=152559 $D=181
M162 160 54 1 1 pfet L=6.5e-08 W=9.55e-07 m=1 nf=1 mpl=1 par=1 ptwell=1 cnr_switch=0 pccrit=0 $X=72527 $Y=164519 $D=181
M163 1 57 56 1 pfet L=6.5e-08 W=9.55e-07 m=1 nf=1 mpl=1 par=1 ptwell=1 cnr_switch=0 pccrit=0 $X=73509 $Y=152559 $D=181
M164 1 57 161 1 pfet L=6.5e-08 W=9.55e-07 m=1 nf=1 mpl=1 par=1 ptwell=1 cnr_switch=0 pccrit=0 $X=73769 $Y=164519 $D=181
M165 1 56 58 1 pfet L=6.5e-08 W=9.55e-07 m=1 nf=1 mpl=1 par=1 ptwell=1 cnr_switch=0 pccrit=0 $X=74549 $Y=152559 $D=181
M166 161 54 1 1 pfet L=6.5e-08 W=9.55e-07 m=1 nf=1 mpl=1 par=1 ptwell=1 cnr_switch=0 pccrit=0 $X=74607 $Y=164519 $D=181
M167 58 55 1 1 pfet L=6.5e-08 W=9.55e-07 m=1 nf=1 mpl=1 par=1 ptwell=1 cnr_switch=0 pccrit=0 $X=75387 $Y=152559 $D=181
M168 59 160 1 1 pfet L=6.5e-08 W=9.55e-07 m=1 nf=1 mpl=1 par=1 ptwell=1 cnr_switch=0 pccrit=0 $X=78526 $Y=164519 $D=181
M169 1 59 52 1 pfet L=6.5e-08 W=9.55e-07 m=1 nf=1 mpl=1 par=1 ptwell=1 cnr_switch=0 pccrit=0 $X=78969 $Y=152559 $D=181
M170 52 60 1 1 pfet L=6.5e-08 W=9.55e-07 m=1 nf=1 mpl=1 par=1 ptwell=1 cnr_switch=0 pccrit=0 $X=79807 $Y=152559 $D=181
M171 1 162 61 1 pfet L=6.5e-08 W=9.55e-07 m=1 nf=1 mpl=1 par=1 ptwell=1 cnr_switch=0 pccrit=0 $X=80009 $Y=164519 $D=181
M172 1 42 60 1 pfet L=6.5e-08 W=9.55e-07 m=1 nf=1 mpl=1 par=1 ptwell=1 cnr_switch=0 pccrit=0 $X=81309 $Y=152559 $D=181
M173 1 163 162 1 pfet L=6.5e-08 W=9.55e-07 m=1 nf=1 mpl=1 par=1 ptwell=1 cnr_switch=0 pccrit=0 $X=81309 $Y=164519 $D=181
M174 211 161 1 1 pfet L=6.5e-08 W=9.55e-07 m=1 nf=1 mpl=1 par=1 ptwell=1 cnr_switch=0 pccrit=0 $X=82349 $Y=164519 $D=181
M175 1 62 53 1 pfet L=6.5e-08 W=9.55e-07 m=1 nf=1 mpl=1 par=1 ptwell=1 cnr_switch=0 pccrit=0 $X=82628 $Y=152559 $D=181
M176 164 42 211 1 pfet L=6.5e-08 W=9.55e-07 m=1 nf=1 mpl=1 par=1 ptwell=1 cnr_switch=0 pccrit=0 $X=83187 $Y=164519 $D=181
M177 53 42 1 1 pfet L=6.5e-08 W=9.55e-07 m=1 nf=1 mpl=1 par=1 ptwell=1 cnr_switch=0 pccrit=0 $X=83466 $Y=152559 $D=181
M178 62 58 1 1 pfet L=6.5e-08 W=9.55e-07 m=1 nf=1 mpl=1 par=1 ptwell=1 cnr_switch=0 pccrit=0 $X=84506 $Y=152559 $D=181
M179 163 164 1 1 pfet L=6.5e-08 W=9.55e-07 m=1 nf=1 mpl=1 par=1 ptwell=1 cnr_switch=0 pccrit=0 $X=84506 $Y=164519 $D=181
M180 1 17 63 1 pfet L=6.5e-08 W=9.55e-07 m=1 nf=1 mpl=1 par=1 ptwell=1 cnr_switch=0 pccrit=0 $X=89898 $Y=152559 $D=181
M181 64 63 1 1 pfet L=6.5e-08 W=9.55e-07 m=1 nf=1 mpl=1 par=1 ptwell=1 cnr_switch=0 pccrit=0 $X=90412 $Y=152559 $D=181
M182 212 65 66 1 pfet L=6.5e-08 W=9.55e-07 m=1 nf=1 mpl=1 par=1 ptwell=1 cnr_switch=0 pccrit=0 $X=90943 $Y=152559 $D=181
M183 1 69 212 1 pfet L=6.5e-08 W=9.55e-07 m=1 nf=1 mpl=1 par=1 ptwell=1 cnr_switch=0 pccrit=0 $X=91506 $Y=152559 $D=181
M184 68 165 1 1 pfet L=6.5e-08 W=9.55e-07 m=1 nf=1 mpl=1 par=1 ptwell=1 cnr_switch=0 pccrit=0 $X=91526 $Y=164519 $D=181
M185 213 67 1 1 pfet L=6.5e-08 W=9.55e-07 m=1 nf=1 mpl=1 par=1 ptwell=1 cnr_switch=0 pccrit=0 $X=92026 $Y=152559 $D=181
M186 69 64 213 1 pfet L=6.5e-08 W=9.55e-07 m=1 nf=1 mpl=1 par=1 ptwell=1 cnr_switch=0 pccrit=0 $X=92578 $Y=152559 $D=181
M187 214 63 69 1 pfet L=6.5e-08 W=9.55e-07 m=1 nf=1 mpl=1 par=1 ptwell=1 cnr_switch=0 pccrit=0 $X=93100 $Y=152559 $D=181
M188 1 66 214 1 pfet L=6.5e-08 W=9.55e-07 m=1 nf=1 mpl=1 par=1 ptwell=1 cnr_switch=0 pccrit=0 $X=93623 $Y=152559 $D=181
M189 215 66 1 1 pfet L=6.5e-08 W=9.55e-07 m=1 nf=1 mpl=1 par=1 ptwell=1 cnr_switch=0 pccrit=0 $X=94143 $Y=152559 $D=181
M190 70 63 215 1 pfet L=6.5e-08 W=9.55e-07 m=1 nf=1 mpl=1 par=1 ptwell=1 cnr_switch=0 pccrit=0 $X=94663 $Y=152559 $D=181
M191 216 64 70 1 pfet L=6.5e-08 W=9.55e-07 m=1 nf=1 mpl=1 par=1 ptwell=1 cnr_switch=0 pccrit=0 $X=95184 $Y=152559 $D=181
M192 1 71 216 1 pfet L=6.4e-08 W=9.55e-07 m=1 nf=1 mpl=1 par=1 ptwell=1 cnr_switch=0 pccrit=0 $X=95475 $Y=152559 $D=181
M193 217 70 1 1 pfet L=6.5e-08 W=9.55e-07 m=1 nf=1 mpl=1 par=1 ptwell=1 cnr_switch=2 pccrit=0 $X=95995 $Y=152559 $D=181
M194 71 65 217 1 pfet L=6.5e-08 W=9.55e-07 m=1 nf=1 mpl=1 par=1 ptwell=1 cnr_switch=0 pccrit=0 $X=96514 $Y=152559 $D=181
M195 72 70 1 1 pfet L=6.5e-08 W=9.55e-07 m=1 nf=1 mpl=1 par=1 ptwell=1 cnr_switch=0 pccrit=0 $X=97071 $Y=152559 $D=181
M196 73 72 1 1 pfet L=6.5e-08 W=9.55e-07 m=1 nf=1 mpl=1 par=1 ptwell=1 cnr_switch=0 pccrit=0 $X=98286 $Y=152559 $D=181
M197 1 75 74 1 pfet L=6.5e-08 W=9.55e-07 m=1 nf=1 mpl=1 par=1 ptwell=1 cnr_switch=0 pccrit=0 $X=99769 $Y=152559 $D=181
M198 77 76 1 1 pfet L=6.5e-08 W=9.55e-07 m=1 nf=1 mpl=1 par=1 ptwell=1 cnr_switch=0 pccrit=0 $X=100886 $Y=164519 $D=181
M199 218 76 1 1 pfet L=6.5e-08 W=9.55e-07 m=1 nf=1 mpl=1 par=1 ptwell=1 cnr_switch=0 pccrit=0 $X=101481 $Y=152559 $D=181
M200 75 73 218 1 pfet L=6.5e-08 W=9.55e-07 m=1 nf=1 mpl=1 par=1 ptwell=1 cnr_switch=0 pccrit=0 $X=102128 $Y=152559 $D=181
M201 219 76 1 1 pfet L=6.5e-08 W=9.55e-07 m=1 nf=1 mpl=1 par=1 ptwell=1 cnr_switch=0 pccrit=0 $X=102261 $Y=164519 $D=181
M202 220 78 75 1 pfet L=6.5e-08 W=9.55e-07 m=1 nf=1 mpl=1 par=1 ptwell=1 cnr_switch=0 pccrit=0 $X=102649 $Y=152559 $D=181
M203 165 166 219 1 pfet L=6.5e-08 W=9.55e-07 m=1 nf=1 mpl=1 par=1 ptwell=1 cnr_switch=0 pccrit=0 $X=102908 $Y=164519 $D=181
M204 1 77 220 1 pfet L=6.5e-08 W=9.55e-07 m=1 nf=1 mpl=1 par=1 ptwell=1 cnr_switch=0 pccrit=0 $X=103212 $Y=152559 $D=181
M205 221 167 165 1 pfet L=6.5e-08 W=9.55e-07 m=1 nf=1 mpl=1 par=1 ptwell=1 cnr_switch=0 pccrit=0 $X=103429 $Y=164519 $D=181
M206 1 77 221 1 pfet L=6.5e-08 W=9.55e-07 m=1 nf=1 mpl=1 par=1 ptwell=1 cnr_switch=0 pccrit=0 $X=103992 $Y=164519 $D=181
M207 1 17 79 1 pfet L=6.5e-08 W=9.55e-07 m=1 nf=1 mpl=1 par=1 ptwell=1 cnr_switch=0 pccrit=0 $X=104198 $Y=152559 $D=181
M208 80 79 1 1 pfet L=6.5e-08 W=9.55e-07 m=1 nf=1 mpl=1 par=1 ptwell=1 cnr_switch=0 pccrit=0 $X=104712 $Y=152559 $D=181
M209 222 65 81 1 pfet L=6.5e-08 W=9.55e-07 m=1 nf=1 mpl=1 par=1 ptwell=1 cnr_switch=0 pccrit=0 $X=105243 $Y=152559 $D=181
M210 1 83 222 1 pfet L=6.5e-08 W=9.55e-07 m=1 nf=1 mpl=1 par=1 ptwell=1 cnr_switch=0 pccrit=0 $X=105806 $Y=152559 $D=181
M211 223 82 1 1 pfet L=6.5e-08 W=9.55e-07 m=1 nf=1 mpl=1 par=1 ptwell=1 cnr_switch=0 pccrit=0 $X=106326 $Y=152559 $D=181
M212 83 80 223 1 pfet L=6.5e-08 W=9.55e-07 m=1 nf=1 mpl=1 par=1 ptwell=1 cnr_switch=0 pccrit=0 $X=106878 $Y=152559 $D=181
M213 224 79 83 1 pfet L=6.5e-08 W=9.55e-07 m=1 nf=1 mpl=1 par=1 ptwell=1 cnr_switch=0 pccrit=0 $X=107400 $Y=152559 $D=181
M214 1 81 224 1 pfet L=6.5e-08 W=9.55e-07 m=1 nf=1 mpl=1 par=1 ptwell=1 cnr_switch=0 pccrit=0 $X=107923 $Y=152559 $D=181
M215 225 81 1 1 pfet L=6.5e-08 W=9.55e-07 m=1 nf=1 mpl=1 par=1 ptwell=1 cnr_switch=0 pccrit=0 $X=108443 $Y=152559 $D=181
M216 84 79 225 1 pfet L=6.5e-08 W=9.55e-07 m=1 nf=1 mpl=1 par=1 ptwell=1 cnr_switch=0 pccrit=0 $X=108963 $Y=152559 $D=181
M217 226 80 84 1 pfet L=6.5e-08 W=9.55e-07 m=1 nf=1 mpl=1 par=1 ptwell=1 cnr_switch=0 pccrit=0 $X=109484 $Y=152559 $D=181
M218 1 85 226 1 pfet L=6.4e-08 W=9.55e-07 m=1 nf=1 mpl=1 par=1 ptwell=1 cnr_switch=0 pccrit=0 $X=109775 $Y=152559 $D=181
M219 227 84 1 1 pfet L=6.5e-08 W=9.55e-07 m=1 nf=1 mpl=1 par=1 ptwell=1 cnr_switch=2 pccrit=0 $X=110295 $Y=152559 $D=181
M220 85 65 227 1 pfet L=6.5e-08 W=9.55e-07 m=1 nf=1 mpl=1 par=1 ptwell=1 cnr_switch=0 pccrit=0 $X=110814 $Y=152559 $D=181